                
<routes>
            <vType accel="1.0" decel="4.5" id="standard_car" length="5.0" minGap="2.5" maxSpeed="25" sigma="0.5" laneChangeMode="5242898"/>
            
            <!-- route definition (the car route) -->

            <route id="W_to_N" edges="W_in N_out"/>
            <route id="W_to_E" edges="W_in E_out"/>
            <route id="W_to_S" edges="W_in S_out"/>
            <route id="N_to_W" edges="N_in W_out"/>
            <route id="N_to_E" edges="N_in E_out"/>
            <route id="N_to_S" edges="N_in S_out"/>
            <route id="E_to_W" edges="E_in W_out"/>
            <route id="E_to_N" edges="E_in N_out"/>
            <route id="E_to_S" edges="E_in S_out"/>
            <route id="S_to_W" edges="S_in W_out"/>
            <route id="S_to_N" edges="S_in N_out"/>
            <route id="S_to_E" edges="S_in E_out"/>
    <vehicle id="vehicle_234_rand" type="standard_car" route="E_to_W" depart="0" departLane="random" departSpeed="10" laneChangeMode="5242898" />
    <vehicle id="vehicle_146_rand" type="standard_car" route="E_to_W" depart="3" departLane="random" departSpeed="10" laneChangeMode="5242898" />
    <vehicle id="vehicle_431_rand" type="standard_car" route="E_to_S" depart="16" departLane="random" departSpeed="10" laneChangeMode="5242898" />
    <vehicle id="vehicle_53_rand" type="standard_car" route="E_to_W" depart="25" departLane="random" departSpeed="10" laneChangeMode="5242898" />
    <vehicle id="vehicle_148_rand" type="standard_car" route="W_to_E" depart="26" departLane="random" departSpeed="10" laneChangeMode="5242898" />
    <vehicle id="vehicle_468_rand" type="standard_car" route="E_to_W" depart="28" departLane="random" departSpeed="10" laneChangeMode="5242898" />
    <vehicle id="vehicle_378_rand" type="standard_car" route="E_to_W" depart="32" departLane="random" departSpeed="10" laneChangeMode="5242898" />
    <vehicle id="vehicle_403_rand" type="standard_car" route="W_to_E" depart="56" departLane="random" departSpeed="10" laneChangeMode="5242898" />
    <vehicle id="vehicle_400_rand" type="standard_car" route="N_to_S" depart="60" departLane="random" departSpeed="10" laneChangeMode="5242898" />
    <vehicle id="vehicle_428_rand" type="standard_car" route="S_to_N" depart="60" departLane="random" departSpeed="10" laneChangeMode="5242898" />
    <vehicle id="vehicle_481_rand" type="standard_car" route="W_to_N" depart="73" departLane="random" departSpeed="10" laneChangeMode="5242898" />
    <vehicle id="vehicle_164_rand" type="standard_car" route="N_to_S" depart="93" departLane="random" departSpeed="10" laneChangeMode="5242898" />
    <vehicle id="vehicle_45_rand" type="standard_car" route="E_to_W" depart="94" departLane="random" departSpeed="10" laneChangeMode="5242898" />
    <vehicle id="vehicle_254_rand" type="standard_car" route="N_to_S" depart="95" departLane="random" departSpeed="10" laneChangeMode="5242898" />
    <vehicle id="vehicle_445_rand" type="standard_car" route="S_to_W" depart="96" departLane="random" departSpeed="10" laneChangeMode="5242898" />
    <vehicle id="vehicle_6_rand" type="standard_car" route="E_to_S" depart="99" departLane="random" departSpeed="10" laneChangeMode="5242898" />
    <vehicle id="vehicle_535_rand" type="standard_car" route="E_to_W" depart="102" departLane="random" departSpeed="10" laneChangeMode="5242898" />
    <vehicle id="vehicle_329_rand" type="standard_car" route="S_to_N" depart="103" departLane="random" departSpeed="10" laneChangeMode="5242898" />
    <vehicle id="vehicle_557_rand" type="standard_car" route="S_to_N" depart="103" departLane="random" departSpeed="10" laneChangeMode="5242898" />
    <vehicle id="vehicle_597_rand" type="standard_car" route="N_to_W" depart="106" departLane="random" departSpeed="10" laneChangeMode="5242898" />
    <vehicle id="vehicle_217_rand" type="standard_car" route="N_to_S" depart="116" departLane="random" departSpeed="10" laneChangeMode="5242898" />
    <vehicle id="vehicle_249_rand" type="standard_car" route="N_to_S" depart="120" departLane="random" departSpeed="10" laneChangeMode="5242898" />
    <vehicle id="vehicle_135_rand" type="standard_car" route="S_to_N" depart="126" departLane="random" departSpeed="10" laneChangeMode="5242898" />
    <vehicle id="vehicle_443_rand" type="standard_car" route="N_to_E" depart="129" departLane="random" departSpeed="10" laneChangeMode="5242898" />
    <vehicle id="vehicle_82_rand" type="standard_car" route="E_to_N" depart="136" departLane="random" departSpeed="10" laneChangeMode="5242898" />
    <vehicle id="vehicle_99_rand" type="standard_car" route="S_to_W" depart="136" departLane="random" departSpeed="10" laneChangeMode="5242898" />
    <vehicle id="vehicle_539_rand" type="standard_car" route="W_to_E" depart="140" departLane="random" departSpeed="10" laneChangeMode="5242898" />
    <vehicle id="vehicle_487_rand" type="standard_car" route="N_to_S" depart="143" departLane="random" departSpeed="10" laneChangeMode="5242898" />
    <vehicle id="vehicle_128_rand" type="standard_car" route="E_to_W" depart="153" departLane="random" departSpeed="10" laneChangeMode="5242898" />
    <vehicle id="vehicle_393_rand" type="standard_car" route="E_to_W" depart="165" departLane="random" departSpeed="10" laneChangeMode="5242898" />
    <vehicle id="vehicle_501_rand" type="standard_car" route="S_to_W" depart="165" departLane="random" departSpeed="10" laneChangeMode="5242898" />
    <vehicle id="vehicle_84_rand" type="standard_car" route="S_to_N" depart="168" departLane="random" departSpeed="10" laneChangeMode="5242898" />
    <vehicle id="vehicle_470_rand" type="standard_car" route="E_to_W" depart="178" departLane="random" departSpeed="10" laneChangeMode="5242898" />
    <vehicle id="vehicle_485_rand" type="standard_car" route="N_to_S" depart="178" departLane="random" departSpeed="10" laneChangeMode="5242898" />
    <vehicle id="vehicle_467_rand" type="standard_car" route="N_to_S" depart="181" departLane="random" departSpeed="10" laneChangeMode="5242898" />
    <vehicle id="vehicle_247_rand" type="standard_car" route="S_to_N" depart="193" departLane="random" departSpeed="10" laneChangeMode="5242898" />
    <vehicle id="vehicle_37_rand" type="standard_car" route="W_to_E" depart="209" departLane="random" departSpeed="10" laneChangeMode="5242898" />
    <vehicle id="vehicle_96_rand" type="standard_car" route="N_to_S" depart="209" departLane="random" departSpeed="10" laneChangeMode="5242898" />
    <vehicle id="vehicle_62_rand" type="standard_car" route="W_to_E" depart="216" departLane="random" departSpeed="10" laneChangeMode="5242898" />
    <vehicle id="vehicle_88_rand" type="standard_car" route="N_to_E" depart="221" departLane="random" departSpeed="10" laneChangeMode="5242898" />
    <vehicle id="vehicle_250_rand" type="standard_car" route="N_to_S" depart="222" departLane="random" departSpeed="10" laneChangeMode="5242898" />
    <vehicle id="vehicle_239_rand" type="standard_car" route="N_to_S" depart="225" departLane="random" departSpeed="10" laneChangeMode="5242898" />
    <vehicle id="vehicle_521_rand" type="standard_car" route="E_to_W" depart="231" departLane="random" departSpeed="10" laneChangeMode="5242898" />
    <vehicle id="vehicle_361_rand" type="standard_car" route="W_to_E" depart="236" departLane="random" departSpeed="10" laneChangeMode="5242898" />
    <vehicle id="vehicle_385_rand" type="standard_car" route="S_to_W" depart="247" departLane="random" departSpeed="10" laneChangeMode="5242898" />
    <vehicle id="vehicle_598_rand" type="standard_car" route="E_to_N" depart="256" departLane="random" departSpeed="10" laneChangeMode="5242898" />
    <vehicle id="vehicle_580_rand" type="standard_car" route="N_to_S" depart="260" departLane="random" departSpeed="10" laneChangeMode="5242898" />
    <vehicle id="vehicle_42_rand" type="standard_car" route="E_to_N" depart="275" departLane="random" departSpeed="10" laneChangeMode="5242898" />
    <vehicle id="vehicle_298_rand" type="standard_car" route="S_to_N" depart="282" departLane="random" departSpeed="10" laneChangeMode="5242898" />
    <vehicle id="vehicle_145_rand" type="standard_car" route="E_to_W" depart="292" departLane="random" departSpeed="10" laneChangeMode="5242898" />
    <vehicle id="vehicle_514_rand" type="standard_car" route="E_to_N" depart="293" departLane="random" departSpeed="10" laneChangeMode="5242898" />
    <vehicle id="vehicle_73_rand" type="standard_car" route="N_to_S" depart="297" departLane="random" departSpeed="10" laneChangeMode="5242898" />
    <vehicle id="vehicle_185_rand" type="standard_car" route="W_to_E" depart="321" departLane="random" departSpeed="10" laneChangeMode="5242898" />
    <vehicle id="vehicle_342_rand" type="standard_car" route="S_to_N" depart="324" departLane="random" departSpeed="10" laneChangeMode="5242898" />
    <vehicle id="vehicle_205_rand" type="standard_car" route="W_to_N" depart="325" departLane="random" departSpeed="10" laneChangeMode="5242898" />
    <vehicle id="vehicle_174_rand" type="standard_car" route="N_to_S" depart="327" departLane="random" departSpeed="10" laneChangeMode="5242898" />
    <vehicle id="vehicle_349_gaussian" type="standard_car" route="S_to_N" depart="343" departLane="random" departSpeed="10" laneChangeMode="5242898" />
    <vehicle id="vehicle_419_rand" type="standard_car" route="S_to_W" depart="355" departLane="random" departSpeed="10" laneChangeMode="5242898" />
    <vehicle id="vehicle_422_rand" type="standard_car" route="N_to_W" depart="362" departLane="random" departSpeed="10" laneChangeMode="5242898" />
    <vehicle id="vehicle_482_rand" type="standard_car" route="E_to_W" depart="364" departLane="random" departSpeed="10" laneChangeMode="5242898" />
    <vehicle id="vehicle_430_rand" type="standard_car" route="E_to_W" depart="367" departLane="random" departSpeed="10" laneChangeMode="5242898" />
    <vehicle id="vehicle_31_rand" type="standard_car" route="N_to_S" depart="368" departLane="random" departSpeed="10" laneChangeMode="5242898" />
    <vehicle id="vehicle_440_rand" type="standard_car" route="W_to_E" depart="370" departLane="random" departSpeed="10" laneChangeMode="5242898" />
    <vehicle id="vehicle_449_rand" type="standard_car" route="W_to_E" depart="372" departLane="random" departSpeed="10" laneChangeMode="5242898" />
    <vehicle id="vehicle_559_rand" type="standard_car" route="N_to_S" depart="373" departLane="random" departSpeed="10" laneChangeMode="5242898" />
    <vehicle id="vehicle_453_rand" type="standard_car" route="W_to_E" depart="374" departLane="random" departSpeed="10" laneChangeMode="5242898" />
    <vehicle id="vehicle_166_rand" type="standard_car" route="S_to_N" depart="375" departLane="random" departSpeed="10" laneChangeMode="5242898" />
    <vehicle id="vehicle_437_rand" type="standard_car" route="N_to_W" depart="377" departLane="random" departSpeed="10" laneChangeMode="5242898" />
    <vehicle id="vehicle_258_gaussian" type="standard_car" route="S_to_N" depart="378" departLane="random" departSpeed="10" laneChangeMode="5242898" />
    <vehicle id="vehicle_155_gaussian" type="standard_car" route="S_to_N" depart="389" departLane="random" departSpeed="10" laneChangeMode="5242898" />
    <vehicle id="vehicle_246_rand" type="standard_car" route="W_to_E" depart="389" departLane="random" departSpeed="10" laneChangeMode="5242898" />
    <vehicle id="vehicle_192_gaussian" type="standard_car" route="S_to_W" depart="392" departLane="random" departSpeed="10" laneChangeMode="5242898" />
    <vehicle id="vehicle_528_rand" type="standard_car" route="N_to_S" depart="395" departLane="random" departSpeed="10" laneChangeMode="5242898" />
    <vehicle id="vehicle_327_gaussian" type="standard_car" route="S_to_E" depart="397" departLane="random" departSpeed="10" laneChangeMode="5242898" />
    <vehicle id="vehicle_465_rand" type="standard_car" route="S_to_N" depart="400" departLane="random" departSpeed="10" laneChangeMode="5242898" />
    <vehicle id="vehicle_372_rand" type="standard_car" route="W_to_E" depart="401" departLane="random" departSpeed="10" laneChangeMode="5242898" />
    <vehicle id="vehicle_165_rand" type="standard_car" route="S_to_N" depart="404" departLane="random" departSpeed="10" laneChangeMode="5242898" />
    <vehicle id="vehicle_551_rand" type="standard_car" route="N_to_S" depart="407" departLane="random" departSpeed="10" laneChangeMode="5242898" />
    <vehicle id="vehicle_24_gaussian" type="standard_car" route="S_to_N" depart="408" departLane="random" departSpeed="10" laneChangeMode="5242898" />
    <vehicle id="vehicle_232_gaussian" type="standard_car" route="S_to_N" depart="411" departLane="random" departSpeed="10" laneChangeMode="5242898" />
    <vehicle id="vehicle_358_gaussian" type="standard_car" route="S_to_N" depart="414" departLane="random" departSpeed="10" laneChangeMode="5242898" />
    <vehicle id="vehicle_8_rand" type="standard_car" route="E_to_N" depart="423" departLane="random" departSpeed="10" laneChangeMode="5242898" />
    <vehicle id="vehicle_162_rand" type="standard_car" route="N_to_E" depart="428" departLane="random" departSpeed="10" laneChangeMode="5242898" />
    <vehicle id="vehicle_399_rand" type="standard_car" route="S_to_N" depart="428" departLane="random" departSpeed="10" laneChangeMode="5242898" />
    <vehicle id="vehicle_76_rand" type="standard_car" route="S_to_N" depart="429" departLane="random" departSpeed="10" laneChangeMode="5242898" />
    <vehicle id="vehicle_75_gaussian" type="standard_car" route="S_to_E" depart="430" departLane="random" departSpeed="10" laneChangeMode="5242898" />
    <vehicle id="vehicle_255_gaussian" type="standard_car" route="S_to_N" depart="431" departLane="random" departSpeed="10" laneChangeMode="5242898" />
    <vehicle id="vehicle_436_rand" type="standard_car" route="S_to_N" depart="432" departLane="random" departSpeed="10" laneChangeMode="5242898" />
    <vehicle id="vehicle_402_rand" type="standard_car" route="N_to_S" depart="435" departLane="random" departSpeed="10" laneChangeMode="5242898" />
    <vehicle id="vehicle_114_rand" type="standard_car" route="S_to_N" depart="437" departLane="random" departSpeed="10" laneChangeMode="5242898" />
    <vehicle id="vehicle_177_gaussian" type="standard_car" route="S_to_N" depart="437" departLane="random" departSpeed="10" laneChangeMode="5242898" />
    <vehicle id="vehicle_477_rand" type="standard_car" route="N_to_S" depart="437" departLane="random" departSpeed="10" laneChangeMode="5242898" />
    <vehicle id="vehicle_333_rand" type="standard_car" route="N_to_S" depart="439" departLane="random" departSpeed="10" laneChangeMode="5242898" />
    <vehicle id="vehicle_162_gaussian" type="standard_car" route="S_to_N" depart="442" departLane="random" departSpeed="10" laneChangeMode="5242898" />
    <vehicle id="vehicle_377_rand" type="standard_car" route="W_to_S" depart="445" departLane="random" departSpeed="10" laneChangeMode="5242898" />
    <vehicle id="vehicle_45_gaussian" type="standard_car" route="S_to_N" depart="445" departLane="random" departSpeed="10" laneChangeMode="5242898" />
    <vehicle id="vehicle_240_gaussian" type="standard_car" route="S_to_N" depart="449" departLane="random" departSpeed="10" laneChangeMode="5242898" />
    <vehicle id="vehicle_113_gaussian" type="standard_car" route="S_to_N" depart="450" departLane="random" departSpeed="10" laneChangeMode="5242898" />
    <vehicle id="vehicle_201_rand" type="standard_car" route="E_to_W" depart="451" departLane="random" departSpeed="10" laneChangeMode="5242898" />
    <vehicle id="vehicle_367_gaussian" type="standard_car" route="S_to_N" depart="454" departLane="random" departSpeed="10" laneChangeMode="5242898" />
    <vehicle id="vehicle_97_gaussian" type="standard_car" route="S_to_N" depart="455" departLane="random" departSpeed="10" laneChangeMode="5242898" />
    <vehicle id="vehicle_110_gaussian" type="standard_car" route="S_to_W" depart="462" departLane="random" departSpeed="10" laneChangeMode="5242898" />
    <vehicle id="vehicle_76_gaussian" type="standard_car" route="S_to_N" depart="463" departLane="random" departSpeed="10" laneChangeMode="5242898" />
    <vehicle id="vehicle_99_gaussian" type="standard_car" route="S_to_E" depart="464" departLane="random" departSpeed="10" laneChangeMode="5242898" />
    <vehicle id="vehicle_186_gaussian" type="standard_car" route="S_to_N" depart="468" departLane="random" departSpeed="10" laneChangeMode="5242898" />
    <vehicle id="vehicle_57_rand" type="standard_car" route="E_to_W" depart="469" departLane="random" departSpeed="10" laneChangeMode="5242898" />
    <vehicle id="vehicle_105_rand" type="standard_car" route="W_to_N" depart="470" departLane="random" departSpeed="10" laneChangeMode="5242898" />
    <vehicle id="vehicle_22_gaussian" type="standard_car" route="S_to_N" depart="470" departLane="random" departSpeed="10" laneChangeMode="5242898" />
    <vehicle id="vehicle_50_gaussian" type="standard_car" route="S_to_N" depart="473" departLane="random" departSpeed="10" laneChangeMode="5242898" />
    <vehicle id="vehicle_64_gaussian" type="standard_car" route="S_to_N" depart="473" departLane="random" departSpeed="10" laneChangeMode="5242898" />
    <vehicle id="vehicle_21_gaussian" type="standard_car" route="S_to_N" depart="474" departLane="random" departSpeed="10" laneChangeMode="5242898" />
    <vehicle id="vehicle_95_gaussian" type="standard_car" route="N_to_E" depart="476" departLane="random" departSpeed="10" laneChangeMode="5242898" />
    <vehicle id="vehicle_13_gaussian" type="standard_car" route="S_to_N" depart="482" departLane="random" departSpeed="10" laneChangeMode="5242898" />
    <vehicle id="vehicle_164_gaussian" type="standard_car" route="S_to_N" depart="482" departLane="random" departSpeed="10" laneChangeMode="5242898" />
    <vehicle id="vehicle_344_gaussian" type="standard_car" route="S_to_N" depart="483" departLane="random" departSpeed="10" laneChangeMode="5242898" />
    <vehicle id="vehicle_63_gaussian" type="standard_car" route="S_to_N" depart="483" departLane="random" departSpeed="10" laneChangeMode="5242898" />
    <vehicle id="vehicle_469_rand" type="standard_car" route="W_to_E" depart="484" departLane="random" departSpeed="10" laneChangeMode="5242898" />
    <vehicle id="vehicle_524_rand" type="standard_car" route="N_to_S" depart="484" departLane="random" departSpeed="10" laneChangeMode="5242898" />
    <vehicle id="vehicle_30_gaussian" type="standard_car" route="S_to_N" depart="490" departLane="random" departSpeed="10" laneChangeMode="5242898" />
    <vehicle id="vehicle_237_gaussian" type="standard_car" route="S_to_E" depart="492" departLane="random" departSpeed="10" laneChangeMode="5242898" />
    <vehicle id="vehicle_249_gaussian" type="standard_car" route="S_to_N" depart="492" departLane="random" departSpeed="10" laneChangeMode="5242898" />
    <vehicle id="vehicle_267_rand" type="standard_car" route="N_to_S" depart="492" departLane="random" departSpeed="10" laneChangeMode="5242898" />
    <vehicle id="vehicle_257_gaussian" type="standard_car" route="S_to_N" depart="495" departLane="random" departSpeed="10" laneChangeMode="5242898" />
    <vehicle id="vehicle_307_gaussian" type="standard_car" route="S_to_N" depart="496" departLane="random" departSpeed="10" laneChangeMode="5242898" />
    <vehicle id="vehicle_167_rand" type="standard_car" route="E_to_W" depart="497" departLane="random" departSpeed="10" laneChangeMode="5242898" />
    <vehicle id="vehicle_243_gaussian" type="standard_car" route="S_to_N" depart="500" departLane="random" departSpeed="10" laneChangeMode="5242898" />
    <vehicle id="vehicle_278_gaussian" type="standard_car" route="S_to_N" depart="500" departLane="random" departSpeed="10" laneChangeMode="5242898" />
    <vehicle id="vehicle_73_gaussian" type="standard_car" route="S_to_N" depart="503" departLane="random" departSpeed="10" laneChangeMode="5242898" />
    <vehicle id="vehicle_281_rand" type="standard_car" route="E_to_W" depart="504" departLane="random" departSpeed="10" laneChangeMode="5242898" />
    <vehicle id="vehicle_324_rand" type="standard_car" route="W_to_E" depart="504" departLane="random" departSpeed="10" laneChangeMode="5242898" />
    <vehicle id="vehicle_341_gaussian" type="standard_car" route="S_to_W" depart="504" departLane="random" departSpeed="10" laneChangeMode="5242898" />
    <vehicle id="vehicle_7_gaussian" type="standard_car" route="S_to_N" depart="505" departLane="random" departSpeed="10" laneChangeMode="5242898" />
    <vehicle id="vehicle_193_gaussian" type="standard_car" route="S_to_W" depart="506" departLane="random" departSpeed="10" laneChangeMode="5242898" />
    <vehicle id="vehicle_566_rand" type="standard_car" route="S_to_E" depart="506" departLane="random" departSpeed="10" laneChangeMode="5242898" />
    <vehicle id="vehicle_290_rand" type="standard_car" route="N_to_S" depart="508" departLane="random" departSpeed="10" laneChangeMode="5242898" />
    <vehicle id="vehicle_356_rand" type="standard_car" route="N_to_W" depart="510" departLane="random" departSpeed="10" laneChangeMode="5242898" />
    <vehicle id="vehicle_389_gaussian" type="standard_car" route="S_to_N" depart="512" departLane="random" departSpeed="10" laneChangeMode="5242898" />
    <vehicle id="vehicle_263_gaussian" type="standard_car" route="S_to_N" depart="515" departLane="random" departSpeed="10" laneChangeMode="5242898" />
    <vehicle id="vehicle_60_gaussian" type="standard_car" route="S_to_W" depart="515" departLane="random" departSpeed="10" laneChangeMode="5242898" />
    <vehicle id="vehicle_363_gaussian" type="standard_car" route="S_to_N" depart="518" departLane="random" departSpeed="10" laneChangeMode="5242898" />
    <vehicle id="vehicle_89_gaussian" type="standard_car" route="S_to_W" depart="521" departLane="random" departSpeed="10" laneChangeMode="5242898" />
    <vehicle id="vehicle_328_rand" type="standard_car" route="N_to_S" depart="523" departLane="random" departSpeed="10" laneChangeMode="5242898" />
    <vehicle id="vehicle_571_rand" type="standard_car" route="E_to_W" depart="523" departLane="random" departSpeed="10" laneChangeMode="5242898" />
    <vehicle id="vehicle_68_gaussian" type="standard_car" route="S_to_N" depart="530" departLane="random" departSpeed="10" laneChangeMode="5242898" />
    <vehicle id="vehicle_160_gaussian" type="standard_car" route="S_to_N" depart="535" departLane="random" departSpeed="10" laneChangeMode="5242898" />
    <vehicle id="vehicle_357_rand" type="standard_car" route="E_to_W" depart="540" departLane="random" departSpeed="10" laneChangeMode="5242898" />
    <vehicle id="vehicle_25_gaussian" type="standard_car" route="S_to_N" depart="542" departLane="random" departSpeed="10" laneChangeMode="5242898" />
    <vehicle id="vehicle_46_gaussian" type="standard_car" route="S_to_N" depart="542" departLane="random" departSpeed="10" laneChangeMode="5242898" />
    <vehicle id="vehicle_165_gaussian" type="standard_car" route="S_to_N" depart="544" departLane="random" departSpeed="10" laneChangeMode="5242898" />
    <vehicle id="vehicle_305_gaussian" type="standard_car" route="S_to_W" depart="544" departLane="random" departSpeed="10" laneChangeMode="5242898" />
    <vehicle id="vehicle_12_gaussian" type="standard_car" route="S_to_E" depart="547" departLane="random" departSpeed="10" laneChangeMode="5242898" />
    <vehicle id="vehicle_104_gaussian" type="standard_car" route="S_to_N" depart="549" departLane="random" departSpeed="10" laneChangeMode="5242898" />
    <vehicle id="vehicle_260_gaussian" type="standard_car" route="S_to_N" depart="549" departLane="random" departSpeed="10" laneChangeMode="5242898" />
    <vehicle id="vehicle_156_gaussian" type="standard_car" route="S_to_N" depart="550" departLane="random" departSpeed="10" laneChangeMode="5242898" />
    <vehicle id="vehicle_287_gaussian" type="standard_car" route="S_to_N" depart="550" departLane="random" departSpeed="10" laneChangeMode="5242898" />
    <vehicle id="vehicle_379_gaussian" type="standard_car" route="S_to_N" depart="551" departLane="random" departSpeed="10" laneChangeMode="5242898" />
    <vehicle id="vehicle_417_rand" type="standard_car" route="W_to_E" depart="554" departLane="random" departSpeed="10" laneChangeMode="5242898" />
    <vehicle id="vehicle_33_rand" type="standard_car" route="E_to_W" depart="555" departLane="random" departSpeed="10" laneChangeMode="5242898" />
    <vehicle id="vehicle_107_gaussian" type="standard_car" route="S_to_N" depart="557" departLane="random" departSpeed="10" laneChangeMode="5242898" />
    <vehicle id="vehicle_16_gaussian" type="standard_car" route="N_to_W" depart="560" departLane="random" departSpeed="10" laneChangeMode="5242898" />
    <vehicle id="vehicle_167_gaussian" type="standard_car" route="S_to_N" depart="561" departLane="random" departSpeed="10" laneChangeMode="5242898" />
    <vehicle id="vehicle_387_gaussian" type="standard_car" route="S_to_N" depart="563" departLane="random" departSpeed="10" laneChangeMode="5242898" />
    <vehicle id="vehicle_323_gaussian" type="standard_car" route="S_to_N" depart="567" departLane="random" departSpeed="10" laneChangeMode="5242898" />
    <vehicle id="vehicle_303_rand" type="standard_car" route="N_to_W" depart="571" departLane="random" departSpeed="10" laneChangeMode="5242898" />
    <vehicle id="vehicle_263_rand" type="standard_car" route="S_to_W" depart="573" departLane="random" departSpeed="10" laneChangeMode="5242898" />
    <vehicle id="vehicle_319_gaussian" type="standard_car" route="S_to_N" depart="573" departLane="random" departSpeed="10" laneChangeMode="5242898" />
    <vehicle id="vehicle_461_rand" type="standard_car" route="E_to_W" depart="573" departLane="random" departSpeed="10" laneChangeMode="5242898" />
    <vehicle id="vehicle_317_gaussian" type="standard_car" route="S_to_N" depart="577" departLane="random" departSpeed="10" laneChangeMode="5242898" />
    <vehicle id="vehicle_390_rand" type="standard_car" route="E_to_W" depart="580" departLane="random" departSpeed="10" laneChangeMode="5242898" />
    <vehicle id="vehicle_537_rand" type="standard_car" route="N_to_E" depart="583" departLane="random" departSpeed="10" laneChangeMode="5242898" />
    <vehicle id="vehicle_309_gaussian" type="standard_car" route="N_to_S" depart="584" departLane="random" departSpeed="10" laneChangeMode="5242898" />
    <vehicle id="vehicle_198_rand" type="standard_car" route="W_to_E" depart="586" departLane="random" departSpeed="10" laneChangeMode="5242898" />
    <vehicle id="vehicle_574_rand" type="standard_car" route="W_to_N" depart="586" departLane="random" departSpeed="10" laneChangeMode="5242898" />
    <vehicle id="vehicle_352_gaussian" type="standard_car" route="S_to_N" depart="587" departLane="random" departSpeed="10" laneChangeMode="5242898" />
    <vehicle id="vehicle_180_gaussian" type="standard_car" route="S_to_E" depart="589" departLane="random" departSpeed="10" laneChangeMode="5242898" />
    <vehicle id="vehicle_183_gaussian" type="standard_car" route="S_to_W" depart="590" departLane="random" departSpeed="10" laneChangeMode="5242898" />
    <vehicle id="vehicle_96_gaussian" type="standard_car" route="S_to_N" depart="591" departLane="random" departSpeed="10" laneChangeMode="5242898" />
    <vehicle id="vehicle_221_gaussian" type="standard_car" route="S_to_N" depart="593" departLane="random" departSpeed="10" laneChangeMode="5242898" />
    <vehicle id="vehicle_78_gaussian" type="standard_car" route="S_to_N" depart="593" departLane="random" departSpeed="10" laneChangeMode="5242898" />
    <vehicle id="vehicle_107_rand" type="standard_car" route="E_to_W" depart="595" departLane="random" departSpeed="10" laneChangeMode="5242898" />
    <vehicle id="vehicle_154_rand" type="standard_car" route="S_to_N" depart="595" departLane="random" departSpeed="10" laneChangeMode="5242898" />
    <vehicle id="vehicle_341_rand" type="standard_car" route="E_to_W" depart="595" departLane="random" departSpeed="10" laneChangeMode="5242898" />
    <vehicle id="vehicle_394_gaussian" type="standard_car" route="N_to_S" depart="598" departLane="random" departSpeed="10" laneChangeMode="5242898" />
    <vehicle id="vehicle_396_gaussian" type="standard_car" route="S_to_E" depart="600" departLane="random" departSpeed="10" laneChangeMode="5242898" />
    <vehicle id="vehicle_248_gaussian" type="standard_car" route="S_to_N" depart="603" departLane="random" departSpeed="10" laneChangeMode="5242898" />
    <vehicle id="vehicle_42_gaussian" type="standard_car" route="S_to_N" depart="603" departLane="random" departSpeed="10" laneChangeMode="5242898" />
    <vehicle id="vehicle_181_rand" type="standard_car" route="E_to_W" depart="605" departLane="random" departSpeed="10" laneChangeMode="5242898" />
    <vehicle id="vehicle_47_rand" type="standard_car" route="S_to_N" depart="607" departLane="random" departSpeed="10" laneChangeMode="5242898" />
    <vehicle id="vehicle_332_gaussian" type="standard_car" route="S_to_N" depart="609" departLane="random" departSpeed="10" laneChangeMode="5242898" />
    <vehicle id="vehicle_273_gaussian" type="standard_car" route="S_to_N" depart="613" departLane="random" departSpeed="10" laneChangeMode="5242898" />
    <vehicle id="vehicle_226_rand" type="standard_car" route="W_to_S" depart="617" departLane="random" departSpeed="10" laneChangeMode="5242898" />
    <vehicle id="vehicle_214_rand" type="standard_car" route="N_to_S" depart="622" departLane="random" departSpeed="10" laneChangeMode="5242898" />
    <vehicle id="vehicle_276_rand" type="standard_car" route="N_to_S" depart="624" departLane="random" departSpeed="10" laneChangeMode="5242898" />