                
<routes>
            <vType accel="1.0" decel="4.5" id="standard_car" length="5.0" minGap="2.5" maxSpeed="25" sigma="0.5" laneChangeMode="5242898"/>
            
            <!-- route definition (the car route) -->

            <route id="W_to_N" edges="W_in N_out"/>
            <route id="W_to_E" edges="W_in E_out"/>
            <route id="W_to_S" edges="W_in S_out"/>
            <route id="N_to_W" edges="N_in W_out"/>
            <route id="N_to_E" edges="N_in E_out"/>
            <route id="N_to_S" edges="N_in S_out"/>
            <route id="E_to_W" edges="E_in W_out"/>
            <route id="E_to_N" edges="E_in N_out"/>
            <route id="E_to_S" edges="E_in S_out"/>
            <route id="S_to_W" edges="S_in W_out"/>
            <route id="S_to_N" edges="S_in N_out"/>
            <route id="S_to_E" edges="S_in E_out"/>
    <vehicle id="vehicle_138_rand" type="standard_car" route="E_to_W" depart="3" departLane="random" departSpeed="10" laneChangeMode="5242898" />
    <vehicle id="vehicle_94_rand" type="standard_car" route="S_to_N" depart="9" departLane="random" departSpeed="10" laneChangeMode="5242898" />
    <vehicle id="vehicle_289_rand" type="standard_car" route="W_to_E" depart="10" departLane="random" departSpeed="10" laneChangeMode="5242898" />
    <vehicle id="vehicle_301_rand" type="standard_car" route="N_to_W" depart="10" departLane="random" departSpeed="10" laneChangeMode="5242898" />
    <vehicle id="vehicle_565_rand" type="standard_car" route="E_to_W" depart="16" departLane="random" departSpeed="10" laneChangeMode="5242898" />
    <vehicle id="vehicle_68_rand" type="standard_car" route="E_to_W" depart="16" departLane="random" departSpeed="10" laneChangeMode="5242898" />
    <vehicle id="vehicle_51_rand" type="standard_car" route="S_to_E" depart="23" departLane="random" departSpeed="10" laneChangeMode="5242898" />
    <vehicle id="vehicle_0_rand" type="standard_car" route="E_to_S" depart="26" departLane="random" departSpeed="10" laneChangeMode="5242898" />
    <vehicle id="vehicle_325_rand" type="standard_car" route="S_to_N" depart="26" departLane="random" departSpeed="10" laneChangeMode="5242898" />
    <vehicle id="vehicle_360_rand" type="standard_car" route="E_to_W" depart="34" departLane="random" departSpeed="10" laneChangeMode="5242898" />
    <vehicle id="vehicle_568_rand" type="standard_car" route="N_to_S" depart="41" departLane="random" departSpeed="10" laneChangeMode="5242898" />
    <vehicle id="vehicle_376_rand" type="standard_car" route="S_to_N" depart="45" departLane="random" departSpeed="10" laneChangeMode="5242898" />
    <vehicle id="vehicle_414_rand" type="standard_car" route="E_to_S" depart="50" departLane="random" departSpeed="10" laneChangeMode="5242898" />
    <vehicle id="vehicle_1_rand" type="standard_car" route="W_to_N" depart="58" departLane="random" departSpeed="10" laneChangeMode="5242898" />
    <vehicle id="vehicle_132_rand" type="standard_car" route="W_to_S" depart="63" departLane="random" departSpeed="10" laneChangeMode="5242898" />
    <vehicle id="vehicle_538_rand" type="standard_car" route="N_to_S" depart="73" departLane="random" departSpeed="10" laneChangeMode="5242898" />
    <vehicle id="vehicle_527_rand" type="standard_car" route="N_to_S" depart="77" departLane="random" departSpeed="10" laneChangeMode="5242898" />
    <vehicle id="vehicle_130_rand" type="standard_car" route="S_to_E" depart="79" departLane="random" departSpeed="10" laneChangeMode="5242898" />
    <vehicle id="vehicle_150_rand" type="standard_car" route="S_to_N" depart="79" departLane="random" departSpeed="10" laneChangeMode="5242898" />
    <vehicle id="vehicle_463_rand" type="standard_car" route="E_to_W" depart="96" departLane="random" departSpeed="10" laneChangeMode="5242898" />
    <vehicle id="vehicle_401_rand" type="standard_car" route="S_to_N" depart="101" departLane="random" departSpeed="10" laneChangeMode="5242898" />
    <vehicle id="vehicle_6_rand" type="standard_car" route="W_to_E" depart="101" departLane="random" departSpeed="10" laneChangeMode="5242898" />
    <vehicle id="vehicle_594_rand" type="standard_car" route="E_to_S" depart="109" departLane="random" departSpeed="10" laneChangeMode="5242898" />
    <vehicle id="vehicle_292_rand" type="standard_car" route="W_to_S" depart="113" departLane="random" departSpeed="10" laneChangeMode="5242898" />
    <vehicle id="vehicle_146_rand" type="standard_car" route="S_to_N" depart="120" departLane="random" departSpeed="10" laneChangeMode="5242898" />
    <vehicle id="vehicle_559_rand" type="standard_car" route="N_to_S" depart="125" departLane="random" departSpeed="10" laneChangeMode="5242898" />
    <vehicle id="vehicle_46_rand" type="standard_car" route="E_to_W" depart="128" departLane="random" departSpeed="10" laneChangeMode="5242898" />
    <vehicle id="vehicle_209_rand" type="standard_car" route="N_to_S" depart="163" departLane="random" departSpeed="10" laneChangeMode="5242898" />
    <vehicle id="vehicle_407_rand" type="standard_car" route="E_to_W" depart="165" departLane="random" departSpeed="10" laneChangeMode="5242898" />
    <vehicle id="vehicle_355_rand" type="standard_car" route="S_to_N" depart="166" departLane="random" departSpeed="10" laneChangeMode="5242898" />
    <vehicle id="vehicle_327_rand" type="standard_car" route="W_to_E" depart="176" departLane="random" departSpeed="10" laneChangeMode="5242898" />
    <vehicle id="vehicle_54_rand" type="standard_car" route="S_to_N" depart="179" departLane="random" departSpeed="10" laneChangeMode="5242898" />
    <vehicle id="vehicle_120_rand" type="standard_car" route="E_to_W" depart="181" departLane="random" departSpeed="10" laneChangeMode="5242898" />
    <vehicle id="vehicle_187_rand" type="standard_car" route="W_to_E" depart="181" departLane="random" departSpeed="10" laneChangeMode="5242898" />
    <vehicle id="vehicle_288_rand" type="standard_car" route="N_to_E" depart="183" departLane="random" departSpeed="10" laneChangeMode="5242898" />
    <vehicle id="vehicle_374_rand" type="standard_car" route="E_to_W" depart="194" departLane="random" departSpeed="10" laneChangeMode="5242898" />
    <vehicle id="vehicle_539_rand" type="standard_car" route="S_to_E" depart="204" departLane="random" departSpeed="10" laneChangeMode="5242898" />
    <vehicle id="vehicle_520_rand" type="standard_car" route="S_to_N" depart="212" departLane="random" departSpeed="10" laneChangeMode="5242898" />
    <vehicle id="vehicle_421_rand" type="standard_car" route="S_to_W" depart="213" departLane="random" departSpeed="10" laneChangeMode="5242898" />
    <vehicle id="vehicle_107_rand" type="standard_car" route="E_to_S" depart="214" departLane="random" departSpeed="10" laneChangeMode="5242898" />
    <vehicle id="vehicle_63_rand" type="standard_car" route="N_to_S" depart="217" departLane="random" departSpeed="10" laneChangeMode="5242898" />
    <vehicle id="vehicle_532_rand" type="standard_car" route="N_to_E" depart="224" departLane="random" departSpeed="10" laneChangeMode="5242898" />
    <vehicle id="vehicle_137_rand" type="standard_car" route="S_to_E" depart="234" departLane="random" departSpeed="10" laneChangeMode="5242898" />
    <vehicle id="vehicle_388_rand" type="standard_car" route="S_to_N" depart="235" departLane="random" departSpeed="10" laneChangeMode="5242898" />
    <vehicle id="vehicle_157_rand" type="standard_car" route="W_to_E" depart="238" departLane="random" departSpeed="10" laneChangeMode="5242898" />
    <vehicle id="vehicle_525_rand" type="standard_car" route="E_to_S" depart="241" departLane="random" departSpeed="10" laneChangeMode="5242898" />
    <vehicle id="vehicle_279_rand" type="standard_car" route="N_to_S" depart="242" departLane="random" departSpeed="10" laneChangeMode="5242898" />
    <vehicle id="vehicle_537_rand" type="standard_car" route="W_to_E" depart="251" departLane="random" departSpeed="10" laneChangeMode="5242898" />
    <vehicle id="vehicle_28_rand" type="standard_car" route="S_to_N" depart="255" departLane="random" departSpeed="10" laneChangeMode="5242898" />
    <vehicle id="vehicle_383_rand" type="standard_car" route="W_to_N" depart="261" departLane="random" departSpeed="10" laneChangeMode="5242898" />
    <vehicle id="vehicle_156_rand" type="standard_car" route="N_to_S" depart="262" departLane="random" departSpeed="10" laneChangeMode="5242898" />
    <vehicle id="vehicle_148_rand" type="standard_car" route="S_to_N" depart="263" departLane="random" departSpeed="10" laneChangeMode="5242898" />
    <vehicle id="vehicle_480_rand" type="standard_car" route="E_to_S" depart="263" departLane="random" departSpeed="10" laneChangeMode="5242898" />
    <vehicle id="vehicle_515_rand" type="standard_car" route="N_to_W" depart="266" departLane="random" departSpeed="10" laneChangeMode="5242898" />
    <vehicle id="vehicle_314_gaussian" type="standard_car" route="W_to_E" depart="270" departLane="random" departSpeed="10" laneChangeMode="5242898" />
    <vehicle id="vehicle_544_rand" type="standard_car" route="S_to_N" depart="270" departLane="random" departSpeed="10" laneChangeMode="5242898" />
    <vehicle id="vehicle_311_rand" type="standard_car" route="W_to_S" depart="278" departLane="random" departSpeed="10" laneChangeMode="5242898" />
    <vehicle id="vehicle_32_gaussian" type="standard_car" route="W_to_E" depart="279" departLane="random" departSpeed="10" laneChangeMode="5242898" />
    <vehicle id="vehicle_108_rand" type="standard_car" route="W_to_E" depart="283" departLane="random" departSpeed="10" laneChangeMode="5242898" />
    <vehicle id="vehicle_327_gaussian" type="standard_car" route="W_to_S" depart="283" departLane="random" departSpeed="10" laneChangeMode="5242898" />
    <vehicle id="vehicle_202_rand" type="standard_car" route="N_to_W" depart="285" departLane="random" departSpeed="10" laneChangeMode="5242898" />
    <vehicle id="vehicle_466_rand" type="standard_car" route="W_to_E" depart="286" departLane="random" departSpeed="10" laneChangeMode="5242898" />
    <vehicle id="vehicle_359_rand" type="standard_car" route="E_to_W" depart="291" departLane="random" departSpeed="10" laneChangeMode="5242898" />
    <vehicle id="vehicle_295_gaussian" type="standard_car" route="W_to_E" depart="292" departLane="random" departSpeed="10" laneChangeMode="5242898" />
    <vehicle id="vehicle_498_rand" type="standard_car" route="E_to_S" depart="295" departLane="random" departSpeed="10" laneChangeMode="5242898" />
    <vehicle id="vehicle_201_rand" type="standard_car" route="W_to_S" depart="296" departLane="random" departSpeed="10" laneChangeMode="5242898" />
    <vehicle id="vehicle_297_rand" type="standard_car" route="W_to_E" depart="299" departLane="random" departSpeed="10" laneChangeMode="5242898" />
    <vehicle id="vehicle_315_rand" type="standard_car" route="S_to_N" depart="300" departLane="random" departSpeed="10" laneChangeMode="5242898" />
    <vehicle id="vehicle_567_rand" type="standard_car" route="W_to_E" depart="307" departLane="random" departSpeed="10" laneChangeMode="5242898" />
    <vehicle id="vehicle_379_rand" type="standard_car" route="E_to_N" depart="311" departLane="random" departSpeed="10" laneChangeMode="5242898" />
    <vehicle id="vehicle_409_rand" type="standard_car" route="W_to_E" depart="319" departLane="random" departSpeed="10" laneChangeMode="5242898" />
    <vehicle id="vehicle_53_gaussian" type="standard_car" route="W_to_E" depart="319" departLane="random" departSpeed="10" laneChangeMode="5242898" />
    <vehicle id="vehicle_153_gaussian" type="standard_car" route="W_to_E" depart="321" departLane="random" departSpeed="10" laneChangeMode="5242898" />
    <vehicle id="vehicle_320_rand" type="standard_car" route="E_to_W" depart="328" departLane="random" departSpeed="10" laneChangeMode="5242898" />
    <vehicle id="vehicle_145_rand" type="standard_car" route="N_to_S" depart="330" departLane="random" departSpeed="10" laneChangeMode="5242898" />
    <vehicle id="vehicle_354_gaussian" type="standard_car" route="W_to_E" depart="330" departLane="random" departSpeed="10" laneChangeMode="5242898" />
    <vehicle id="vehicle_467_rand" type="standard_car" route="S_to_N" depart="333" departLane="random" departSpeed="10" laneChangeMode="5242898" />
    <vehicle id="vehicle_231_gaussian" type="standard_car" route="W_to_E" depart="339" departLane="random" departSpeed="10" laneChangeMode="5242898" />
    <vehicle id="vehicle_277_gaussian" type="standard_car" route="W_to_E" depart="339" departLane="random" departSpeed="10" laneChangeMode="5242898" />
    <vehicle id="vehicle_144_rand" type="standard_car" route="N_to_S" depart="344" departLane="random" departSpeed="10" laneChangeMode="5242898" />
    <vehicle id="vehicle_14_rand" type="standard_car" route="S_to_N" depart="344" departLane="random" departSpeed="10" laneChangeMode="5242898" />
    <vehicle id="vehicle_377_gaussian" type="standard_car" route="W_to_E" depart="344" departLane="random" departSpeed="10" laneChangeMode="5242898" />
    <vehicle id="vehicle_321_gaussian" type="standard_car" route="W_to_E" depart="347" departLane="random" departSpeed="10" laneChangeMode="5242898" />
    <vehicle id="vehicle_228_rand" type="standard_car" route="N_to_S" depart="348" departLane="random" departSpeed="10" laneChangeMode="5242898" />
    <vehicle id="vehicle_86_gaussian" type="standard_car" route="W_to_E" depart="348" departLane="random" departSpeed="10" laneChangeMode="5242898" />
    <vehicle id="vehicle_343_gaussian" type="standard_car" route="W_to_E" depart="353" departLane="random" departSpeed="10" laneChangeMode="5242898" />
    <vehicle id="vehicle_11_gaussian" type="standard_car" route="W_to_E" depart="354" departLane="random" departSpeed="10" laneChangeMode="5242898" />
    <vehicle id="vehicle_109_rand" type="standard_car" route="E_to_W" depart="355" departLane="random" departSpeed="10" laneChangeMode="5242898" />
    <vehicle id="vehicle_172_gaussian" type="standard_car" route="W_to_E" depart="358" departLane="random" departSpeed="10" laneChangeMode="5242898" />
    <vehicle id="vehicle_251_gaussian" type="standard_car" route="W_to_S" depart="358" departLane="random" departSpeed="10" laneChangeMode="5242898" />
    <vehicle id="vehicle_491_rand" type="standard_car" route="W_to_E" depart="359" departLane="random" departSpeed="10" laneChangeMode="5242898" />
    <vehicle id="vehicle_52_gaussian" type="standard_car" route="W_to_E" depart="359" departLane="random" departSpeed="10" laneChangeMode="5242898" />
    <vehicle id="vehicle_337_gaussian" type="standard_car" route="W_to_N" depart="361" departLane="random" departSpeed="10" laneChangeMode="5242898" />
    <vehicle id="vehicle_208_gaussian" type="standard_car" route="W_to_E" depart="362" departLane="random" departSpeed="10" laneChangeMode="5242898" />
    <vehicle id="vehicle_99_gaussian" type="standard_car" route="W_to_E" depart="363" departLane="random" departSpeed="10" laneChangeMode="5242898" />
    <vehicle id="vehicle_224_gaussian" type="standard_car" route="W_to_N" depart="365" departLane="random" departSpeed="10" laneChangeMode="5242898" />
    <vehicle id="vehicle_596_rand" type="standard_car" route="W_to_E" depart="370" departLane="random" departSpeed="10" laneChangeMode="5242898" />
    <vehicle id="vehicle_156_gaussian" type="standard_car" route="W_to_E" depart="373" departLane="random" departSpeed="10" laneChangeMode="5242898" />
    <vehicle id="vehicle_237_gaussian" type="standard_car" route="W_to_S" depart="373" departLane="random" departSpeed="10" laneChangeMode="5242898" />
    <vehicle id="vehicle_165_gaussian" type="standard_car" route="W_to_N" depart="377" departLane="random" departSpeed="10" laneChangeMode="5242898" />
    <vehicle id="vehicle_255_gaussian" type="standard_car" route="W_to_E" depart="377" departLane="random" departSpeed="10" laneChangeMode="5242898" />
    <vehicle id="vehicle_27_rand" type="standard_car" route="E_to_W" depart="378" departLane="random" departSpeed="10" laneChangeMode="5242898" />
    <vehicle id="vehicle_71_rand" type="standard_car" route="S_to_W" depart="378" departLane="random" departSpeed="10" laneChangeMode="5242898" />
    <vehicle id="vehicle_117_rand" type="standard_car" route="E_to_N" depart="379" departLane="random" departSpeed="10" laneChangeMode="5242898" />
    <vehicle id="vehicle_282_gaussian" type="standard_car" route="W_to_S" depart="381" departLane="random" departSpeed="10" laneChangeMode="5242898" />
    <vehicle id="vehicle_332_gaussian" type="standard_car" route="W_to_E" depart="382" departLane="random" departSpeed="10" laneChangeMode="5242898" />
    <vehicle id="vehicle_170_gaussian" type="standard_car" route="W_to_E" depart="386" departLane="random" departSpeed="10" laneChangeMode="5242898" />
    <vehicle id="vehicle_94_gaussian" type="standard_car" route="W_to_E" depart="387" departLane="random" departSpeed="10" laneChangeMode="5242898" />
    <vehicle id="vehicle_162_gaussian" type="standard_car" route="W_to_S" depart="388" departLane="random" departSpeed="10" laneChangeMode="5242898" />
    <vehicle id="vehicle_113_rand" type="standard_car" route="W_to_N" depart="389" departLane="random" departSpeed="10" laneChangeMode="5242898" />
    <vehicle id="vehicle_137_gaussian" type="standard_car" route="W_to_S" depart="389" departLane="random" departSpeed="10" laneChangeMode="5242898" />
    <vehicle id="vehicle_12_gaussian" type="standard_car" route="W_to_S" depart="390" departLane="random" departSpeed="10" laneChangeMode="5242898" />
    <vehicle id="vehicle_384_gaussian" type="standard_car" route="W_to_N" depart="395" departLane="random" departSpeed="10" laneChangeMode="5242898" />
    <vehicle id="vehicle_192_gaussian" type="standard_car" route="W_to_E" depart="396" departLane="random" departSpeed="10" laneChangeMode="5242898" />
    <vehicle id="vehicle_381_gaussian" type="standard_car" route="W_to_E" depart="396" departLane="random" departSpeed="10" laneChangeMode="5242898" />
    <vehicle id="vehicle_102_gaussian" type="standard_car" route="W_to_E" depart="397" departLane="random" departSpeed="10" laneChangeMode="5242898" />
    <vehicle id="vehicle_197_gaussian" type="standard_car" route="W_to_E" depart="397" departLane="random" departSpeed="10" laneChangeMode="5242898" />
    <vehicle id="vehicle_87_gaussian" type="standard_car" route="W_to_E" depart="397" departLane="random" departSpeed="10" laneChangeMode="5242898" />
    <vehicle id="vehicle_264_gaussian" type="standard_car" route="W_to_N" depart="399" departLane="random" departSpeed="10" laneChangeMode="5242898" />
    <vehicle id="vehicle_230_rand" type="standard_car" route="S_to_N" depart="406" departLane="random" departSpeed="10" laneChangeMode="5242898" />
    <vehicle id="vehicle_379_gaussian" type="standard_car" route="W_to_E" depart="407" departLane="random" departSpeed="10" laneChangeMode="5242898" />
    <vehicle id="vehicle_17_gaussian" type="standard_car" route="W_to_E" depart="408" departLane="random" departSpeed="10" laneChangeMode="5242898" />
    <vehicle id="vehicle_98_gaussian" type="standard_car" route="W_to_S" depart="408" departLane="random" departSpeed="10" laneChangeMode="5242898" />
    <vehicle id="vehicle_106_gaussian" type="standard_car" route="W_to_E" depart="411" departLane="random" departSpeed="10" laneChangeMode="5242898" />
    <vehicle id="vehicle_229_gaussian" type="standard_car" route="W_to_E" depart="411" departLane="random" departSpeed="10" laneChangeMode="5242898" />
    <vehicle id="vehicle_493_rand" type="standard_car" route="S_to_N" depart="412" departLane="random" departSpeed="10" laneChangeMode="5242898" />
    <vehicle id="vehicle_163_gaussian" type="standard_car" route="W_to_E" depart="413" departLane="random" departSpeed="10" laneChangeMode="5242898" />
    <vehicle id="vehicle_580_rand" type="standard_car" route="E_to_W" depart="413" departLane="random" departSpeed="10" laneChangeMode="5242898" />
    <vehicle id="vehicle_63_gaussian" type="standard_car" route="W_to_E" depart="414" departLane="random" departSpeed="10" laneChangeMode="5242898" />
    <vehicle id="vehicle_210_gaussian" type="standard_car" route="W_to_S" depart="415" departLane="random" departSpeed="10" laneChangeMode="5242898" />
    <vehicle id="vehicle_227_gaussian" type="standard_car" route="W_to_E" depart="415" departLane="random" departSpeed="10" laneChangeMode="5242898" />
    <vehicle id="vehicle_23_gaussian" type="standard_car" route="W_to_S" depart="415" departLane="random" departSpeed="10" laneChangeMode="5242898" />
    <vehicle id="vehicle_334_rand" type="standard_car" route="N_to_S" depart="415" departLane="random" departSpeed="10" laneChangeMode="5242898" />
    <vehicle id="vehicle_73_rand" type="standard_car" route="S_to_E" depart="416" departLane="random" departSpeed="10" laneChangeMode="5242898" />
    <vehicle id="vehicle_108_gaussian" type="standard_car" route="W_to_E" depart="418" departLane="random" departSpeed="10" laneChangeMode="5242898" />
    <vehicle id="vehicle_164_gaussian" type="standard_car" route="W_to_E" depart="418" departLane="random" departSpeed="10" laneChangeMode="5242898" />
    <vehicle id="vehicle_211_gaussian" type="standard_car" route="W_to_N" depart="418" departLane="random" departSpeed="10" laneChangeMode="5242898" />
    <vehicle id="vehicle_365_rand" type="standard_car" route="W_to_E" depart="418" departLane="random" departSpeed="10" laneChangeMode="5242898" />
    <vehicle id="vehicle_275_gaussian" type="standard_car" route="W_to_E" depart="419" departLane="random" departSpeed="10" laneChangeMode="5242898" />
    <vehicle id="vehicle_123_gaussian" type="standard_car" route="W_to_N" depart="422" departLane="random" departSpeed="10" laneChangeMode="5242898" />
    <vehicle id="vehicle_260_rand" type="standard_car" route="N_to_S" depart="423" departLane="random" departSpeed="10" laneChangeMode="5242898" />
    <vehicle id="vehicle_365_gaussian" type="standard_car" route="W_to_E" depart="423" departLane="random" departSpeed="10" laneChangeMode="5242898" />
    <vehicle id="vehicle_112_gaussian" type="standard_car" route="W_to_E" depart="424" departLane="random" departSpeed="10" laneChangeMode="5242898" />
    <vehicle id="vehicle_67_gaussian" type="standard_car" route="W_to_E" depart="429" departLane="random" departSpeed="10" laneChangeMode="5242898" />
    <vehicle id="vehicle_482_rand" type="standard_car" route="W_to_E" depart="430" departLane="random" departSpeed="10" laneChangeMode="5242898" />
    <vehicle id="vehicle_92_gaussian" type="standard_car" route="W_to_E" depart="431" departLane="random" departSpeed="10" laneChangeMode="5242898" />
    <vehicle id="vehicle_135_rand" type="standard_car" route="S_to_N" depart="432" departLane="random" departSpeed="10" laneChangeMode="5242898" />
    <vehicle id="vehicle_342_gaussian" type="standard_car" route="W_to_E" depart="432" departLane="random" departSpeed="10" laneChangeMode="5242898" />
    <vehicle id="vehicle_285_rand" type="standard_car" route="E_to_W" depart="433" departLane="random" departSpeed="10" laneChangeMode="5242898" />
    <vehicle id="vehicle_194_gaussian" type="standard_car" route="W_to_E" depart="434" departLane="random" departSpeed="10" laneChangeMode="5242898" />
    <vehicle id="vehicle_222_gaussian" type="standard_car" route="W_to_E" depart="434" departLane="random" departSpeed="10" laneChangeMode="5242898" />
    <vehicle id="vehicle_36_gaussian" type="standard_car" route="W_to_S" depart="434" departLane="random" departSpeed="10" laneChangeMode="5242898" />
    <vehicle id="vehicle_317_gaussian" type="standard_car" route="W_to_E" depart="435" departLane="random" departSpeed="10" laneChangeMode="5242898" />
    <vehicle id="vehicle_3_gaussian" type="standard_car" route="W_to_E" depart="437" departLane="random" departSpeed="10" laneChangeMode="5242898" />
    <vehicle id="vehicle_266_gaussian" type="standard_car" route="W_to_E" depart="441" departLane="random" departSpeed="10" laneChangeMode="5242898" />
    <vehicle id="vehicle_234_rand" type="standard_car" route="N_to_S" depart="443" departLane="random" departSpeed="10" laneChangeMode="5242898" />
    <vehicle id="vehicle_127_gaussian" type="standard_car" route="W_to_E" depart="444" departLane="random" departSpeed="10" laneChangeMode="5242898" />
    <vehicle id="vehicle_310_gaussian" type="standard_car" route="W_to_E" depart="444" departLane="random" departSpeed="10" laneChangeMode="5242898" />
    <vehicle id="vehicle_230_gaussian" type="standard_car" route="W_to_S" depart="445" departLane="random" departSpeed="10" laneChangeMode="5242898" />
    <vehicle id="vehicle_448_rand" type="standard_car" route="S_to_N" depart="445" departLane="random" departSpeed="10" laneChangeMode="5242898" />
    <vehicle id="vehicle_126_gaussian" type="standard_car" route="W_to_S" depart="450" departLane="random" departSpeed="10" laneChangeMode="5242898" />
    <vehicle id="vehicle_139_gaussian" type="standard_car" route="W_to_E" depart="450" departLane="random" departSpeed="10" laneChangeMode="5242898" />
    <vehicle id="vehicle_47_gaussian" type="standard_car" route="W_to_E" depart="450" departLane="random" departSpeed="10" laneChangeMode="5242898" />
    <vehicle id="vehicle_96_rand" type="standard_car" route="N_to_S" depart="450" departLane="random" departSpeed="10" laneChangeMode="5242898" />
    <vehicle id="vehicle_271_gaussian" type="standard_car" route="W_to_E" depart="452" departLane="random" departSpeed="10" laneChangeMode="5242898" />
    <vehicle id="vehicle_124_gaussian" type="standard_car" route="W_to_E" depart="454" departLane="random" departSpeed="10" laneChangeMode="5242898" />
    <vehicle id="vehicle_43_gaussian" type="standard_car" route="W_to_N" depart="455" departLane="random" departSpeed="10" laneChangeMode="5242898" />
    <vehicle id="vehicle_62_gaussian" type="standard_car" route="W_to_N" depart="455" departLane="random" departSpeed="10" laneChangeMode="5242898" />
    <vehicle id="vehicle_434_rand" type="standard_car" route="E_to_W" depart="459" departLane="random" departSpeed="10" laneChangeMode="5242898" />
    <vehicle id="vehicle_436_rand" type="standard_car" route="E_to_W" depart="460" departLane="random" departSpeed="10" laneChangeMode="5242898" />
    <vehicle id="vehicle_333_gaussian" type="standard_car" route="W_to_E" depart="462" departLane="random" departSpeed="10" laneChangeMode="5242898" />
    <vehicle id="vehicle_33_gaussian" type="standard_car" route="W_to_E" depart="462" departLane="random" departSpeed="10" laneChangeMode="5242898" />
    <vehicle id="vehicle_162_rand" type="standard_car" route="E_to_W" depart="465" departLane="random" departSpeed="10" laneChangeMode="5242898" />
    <vehicle id="vehicle_213_gaussian" type="standard_car" route="W_to_E" depart="468" departLane="random" departSpeed="10" laneChangeMode="5242898" />
    <vehicle id="vehicle_302_gaussian" type="standard_car" route="W_to_E" depart="470" departLane="random" departSpeed="10" laneChangeMode="5242898" />
    <vehicle id="vehicle_363_gaussian" type="standard_car" route="W_to_N" depart="471" departLane="random" departSpeed="10" laneChangeMode="5242898" />
    <vehicle id="vehicle_352_gaussian" type="standard_car" route="W_to_S" depart="472" departLane="random" departSpeed="10" laneChangeMode="5242898" />
    <vehicle id="vehicle_15_gaussian" type="standard_car" route="W_to_E" depart="473" departLane="random" departSpeed="10" laneChangeMode="5242898" />
    <vehicle id="vehicle_46_gaussian" type="standard_car" route="W_to_E" depart="474" departLane="random" departSpeed="10" laneChangeMode="5242898" />
    <vehicle id="vehicle_389_gaussian" type="standard_car" route="W_to_S" depart="475" departLane="random" departSpeed="10" laneChangeMode="5242898" />
    <vehicle id="vehicle_48_gaussian" type="standard_car" route="W_to_E" depart="475" departLane="random" departSpeed="10" laneChangeMode="5242898" />
    <vehicle id="vehicle_40_gaussian" type="standard_car" route="W_to_E" depart="476" departLane="random" departSpeed="10" laneChangeMode="5242898" />
    <vehicle id="vehicle_311_gaussian" type="standard_car" route="W_to_E" depart="477" departLane="random" departSpeed="10" laneChangeMode="5242898" />
    <vehicle id="vehicle_179_gaussian" type="standard_car" route="W_to_E" depart="478" departLane="random" departSpeed="10" laneChangeMode="5242898" />
    <vehicle id="vehicle_55_gaussian" type="standard_car" route="W_to_E" depart="478" departLane="random" departSpeed="10" laneChangeMode="5242898" />
    <vehicle id="vehicle_195_gaussian" type="standard_car" route="W_to_S" depart="479" departLane="random" departSpeed="10" laneChangeMode="5242898" />
    <vehicle id="vehicle_20_gaussian" type="standard_car" route="W_to_E" depart="480" departLane="random" departSpeed="10" laneChangeMode="5242898" />
    <vehicle id="vehicle_355_gaussian" type="standard_car" route="W_to_E" depart="481" departLane="random" departSpeed="10" laneChangeMode="5242898" />
    <vehicle id="vehicle_200_gaussian" type="standard_car" route="W_to_S" depart="482" departLane="random" departSpeed="10" laneChangeMode="5242898" />
    <vehicle id="vehicle_488_rand" type="standard_car" route="E_to_W" depart="482" departLane="random" departSpeed="10" laneChangeMode="5242898" />
    <vehicle id="vehicle_387_gaussian" type="standard_car" route="W_to_S" depart="483" departLane="random" departSpeed="10" laneChangeMode="5242898" />
    <vehicle id="vehicle_131_gaussian" type="standard_car" route="W_to_E" depart="489" departLane="random" departSpeed="10" laneChangeMode="5242898" />
    <vehicle id="vehicle_84_gaussian" type="standard_car" route="W_to_E" depart="493" departLane="random" departSpeed="10" laneChangeMode="5242898" />