                
<routes>
            <vType accel="1.0" decel="4.5" id="standard_car" length="5.0" minGap="2.5" maxSpeed="25" sigma="0.5" laneChangeMode="5242898"/>
            
            <!-- route definition (the car route) -->

            <route id="W_to_N" edges="W_in N_out"/>
            <route id="W_to_E" edges="W_in E_out"/>
            <route id="W_to_S" edges="W_in S_out"/>
            <route id="N_to_W" edges="N_in W_out"/>
            <route id="N_to_E" edges="N_in E_out"/>
            <route id="N_to_S" edges="N_in S_out"/>
            <route id="E_to_W" edges="E_in W_out"/>
            <route id="E_to_N" edges="E_in N_out"/>
            <route id="E_to_S" edges="E_in S_out"/>
            <route id="S_to_W" edges="S_in W_out"/>
            <route id="S_to_N" edges="S_in N_out"/>
            <route id="S_to_E" edges="S_in E_out"/>
    <vehicle id="vehicle_207_rand" type="standard_car" route="S_to_E" depart="0" departLane="random" departSpeed="10" laneChangeMode="5242898" />
    <vehicle id="vehicle_149_rand" type="standard_car" route="N_to_S" depart="1" departLane="random" departSpeed="10" laneChangeMode="5242898" />
    <vehicle id="vehicle_325_rand" type="standard_car" route="E_to_S" depart="4" departLane="random" departSpeed="10" laneChangeMode="5242898" />
    <vehicle id="vehicle_453_rand" type="standard_car" route="S_to_E" depart="14" departLane="random" departSpeed="10" laneChangeMode="5242898" />
    <vehicle id="vehicle_299_rand" type="standard_car" route="N_to_S" depart="25" departLane="random" departSpeed="10" laneChangeMode="5242898" />
    <vehicle id="vehicle_288_rand" type="standard_car" route="N_to_S" depart="27" departLane="random" departSpeed="10" laneChangeMode="5242898" />
    <vehicle id="vehicle_291_rand" type="standard_car" route="S_to_N" depart="30" departLane="random" departSpeed="10" laneChangeMode="5242898" />
    <vehicle id="vehicle_556_rand" type="standard_car" route="E_to_W" depart="39" departLane="random" departSpeed="10" laneChangeMode="5242898" />
    <vehicle id="vehicle_324_rand" type="standard_car" route="S_to_N" depart="43" departLane="random" departSpeed="10" laneChangeMode="5242898" />
    <vehicle id="vehicle_102_rand" type="standard_car" route="S_to_N" depart="48" departLane="random" departSpeed="10" laneChangeMode="5242898" />
    <vehicle id="vehicle_297_rand" type="standard_car" route="S_to_N" depart="51" departLane="random" departSpeed="10" laneChangeMode="5242898" />
    <vehicle id="vehicle_331_rand" type="standard_car" route="E_to_W" depart="59" departLane="random" departSpeed="10" laneChangeMode="5242898" />
    <vehicle id="vehicle_248_rand" type="standard_car" route="N_to_E" depart="62" departLane="random" departSpeed="10" laneChangeMode="5242898" />
    <vehicle id="vehicle_118_rand" type="standard_car" route="W_to_E" depart="82" departLane="random" departSpeed="10" laneChangeMode="5242898" />
    <vehicle id="vehicle_113_rand" type="standard_car" route="W_to_E" depart="84" departLane="random" departSpeed="10" laneChangeMode="5242898" />
    <vehicle id="vehicle_132_rand" type="standard_car" route="N_to_S" depart="85" departLane="random" departSpeed="10" laneChangeMode="5242898" />
    <vehicle id="vehicle_120_rand" type="standard_car" route="N_to_E" depart="91" departLane="random" departSpeed="10" laneChangeMode="5242898" />
    <vehicle id="vehicle_461_rand" type="standard_car" route="N_to_S" depart="94" departLane="random" departSpeed="10" laneChangeMode="5242898" />
    <vehicle id="vehicle_329_rand" type="standard_car" route="E_to_N" depart="97" departLane="random" departSpeed="10" laneChangeMode="5242898" />
    <vehicle id="vehicle_193_rand" type="standard_car" route="S_to_N" depart="108" departLane="random" departSpeed="10" laneChangeMode="5242898" />
    <vehicle id="vehicle_592_rand" type="standard_car" route="E_to_W" depart="109" departLane="random" departSpeed="10" laneChangeMode="5242898" />
    <vehicle id="vehicle_103_rand" type="standard_car" route="S_to_N" depart="140" departLane="random" departSpeed="10" laneChangeMode="5242898" />
    <vehicle id="vehicle_186_rand" type="standard_car" route="N_to_S" depart="142" departLane="random" departSpeed="10" laneChangeMode="5242898" />
    <vehicle id="vehicle_493_rand" type="standard_car" route="N_to_S" depart="143" departLane="random" departSpeed="10" laneChangeMode="5242898" />
    <vehicle id="vehicle_58_rand" type="standard_car" route="N_to_S" depart="143" departLane="random" departSpeed="10" laneChangeMode="5242898" />
    <vehicle id="vehicle_591_rand" type="standard_car" route="E_to_W" depart="146" departLane="random" departSpeed="10" laneChangeMode="5242898" />
    <vehicle id="vehicle_502_rand" type="standard_car" route="S_to_E" depart="150" departLane="random" departSpeed="10" laneChangeMode="5242898" />
    <vehicle id="vehicle_43_rand" type="standard_car" route="E_to_W" depart="151" departLane="random" departSpeed="10" laneChangeMode="5242898" />
    <vehicle id="vehicle_227_rand" type="standard_car" route="W_to_E" depart="168" departLane="random" departSpeed="10" laneChangeMode="5242898" />
    <vehicle id="vehicle_236_rand" type="standard_car" route="S_to_W" depart="173" departLane="random" departSpeed="10" laneChangeMode="5242898" />
    <vehicle id="vehicle_417_rand" type="standard_car" route="N_to_E" depart="173" departLane="random" departSpeed="10" laneChangeMode="5242898" />
    <vehicle id="vehicle_5_rand" type="standard_car" route="E_to_W" depart="174" departLane="random" departSpeed="10" laneChangeMode="5242898" />
    <vehicle id="vehicle_192_rand" type="standard_car" route="S_to_N" depart="176" departLane="random" departSpeed="10" laneChangeMode="5242898" />
    <vehicle id="vehicle_282_rand" type="standard_car" route="S_to_N" depart="177" departLane="random" departSpeed="10" laneChangeMode="5242898" />
    <vehicle id="vehicle_385_rand" type="standard_car" route="E_to_S" depart="185" departLane="random" departSpeed="10" laneChangeMode="5242898" />
    <vehicle id="vehicle_588_rand" type="standard_car" route="E_to_S" depart="190" departLane="random" departSpeed="10" laneChangeMode="5242898" />
    <vehicle id="vehicle_578_rand" type="standard_car" route="E_to_N" depart="191" departLane="random" departSpeed="10" laneChangeMode="5242898" />
    <vehicle id="vehicle_125_rand" type="standard_car" route="N_to_S" depart="195" departLane="random" departSpeed="10" laneChangeMode="5242898" />
    <vehicle id="vehicle_519_rand" type="standard_car" route="N_to_E" depart="199" departLane="random" departSpeed="10" laneChangeMode="5242898" />
    <vehicle id="vehicle_543_rand" type="standard_car" route="E_to_W" depart="199" departLane="random" departSpeed="10" laneChangeMode="5242898" />
    <vehicle id="vehicle_164_rand" type="standard_car" route="S_to_N" depart="201" departLane="random" departSpeed="10" laneChangeMode="5242898" />
    <vehicle id="vehicle_463_rand" type="standard_car" route="W_to_E" depart="201" departLane="random" departSpeed="10" laneChangeMode="5242898" />
    <vehicle id="vehicle_316_rand" type="standard_car" route="N_to_S" depart="211" departLane="random" departSpeed="10" laneChangeMode="5242898" />
    <vehicle id="vehicle_194_rand" type="standard_car" route="W_to_E" depart="212" departLane="random" departSpeed="10" laneChangeMode="5242898" />
    <vehicle id="vehicle_84_rand" type="standard_car" route="S_to_N" depart="217" departLane="random" departSpeed="10" laneChangeMode="5242898" />
    <vehicle id="vehicle_551_rand" type="standard_car" route="E_to_W" depart="223" departLane="random" departSpeed="10" laneChangeMode="5242898" />
    <vehicle id="vehicle_283_gaussian" type="standard_car" route="W_to_E" depart="225" departLane="random" departSpeed="10" laneChangeMode="5242898" />
    <vehicle id="vehicle_146_rand" type="standard_car" route="N_to_S" depart="234" departLane="random" departSpeed="10" laneChangeMode="5242898" />
    <vehicle id="vehicle_414_rand" type="standard_car" route="W_to_E" depart="239" departLane="random" departSpeed="10" laneChangeMode="5242898" />
    <vehicle id="vehicle_548_rand" type="standard_car" route="N_to_S" depart="241" departLane="random" departSpeed="10" laneChangeMode="5242898" />
    <vehicle id="vehicle_563_rand" type="standard_car" route="E_to_N" depart="251" departLane="random" departSpeed="10" laneChangeMode="5242898" />
    <vehicle id="vehicle_11_rand" type="standard_car" route="N_to_E" depart="255" departLane="random" departSpeed="10" laneChangeMode="5242898" />
    <vehicle id="vehicle_116_rand" type="standard_car" route="S_to_N" depart="272" departLane="random" departSpeed="10" laneChangeMode="5242898" />
    <vehicle id="vehicle_273_rand" type="standard_car" route="W_to_E" depart="287" departLane="random" departSpeed="10" laneChangeMode="5242898" />
    <vehicle id="vehicle_155_gaussian" type="standard_car" route="W_to_E" depart="289" departLane="random" departSpeed="10" laneChangeMode="5242898" />
    <vehicle id="vehicle_38_rand" type="standard_car" route="S_to_E" depart="291" departLane="random" departSpeed="10" laneChangeMode="5242898" />
    <vehicle id="vehicle_69_rand" type="standard_car" route="S_to_N" depart="296" departLane="random" departSpeed="10" laneChangeMode="5242898" />
    <vehicle id="vehicle_90_rand" type="standard_car" route="N_to_S" depart="302" departLane="random" departSpeed="10" laneChangeMode="5242898" />
    <vehicle id="vehicle_234_rand" type="standard_car" route="N_to_S" depart="304" departLane="random" departSpeed="10" laneChangeMode="5242898" />
    <vehicle id="vehicle_310_rand" type="standard_car" route="E_to_W" depart="312" departLane="random" departSpeed="10" laneChangeMode="5242898" />
    <vehicle id="vehicle_103_gaussian" type="standard_car" route="W_to_E" depart="313" departLane="random" departSpeed="10" laneChangeMode="5242898" />
    <vehicle id="vehicle_231_gaussian" type="standard_car" route="W_to_E" depart="314" departLane="random" departSpeed="10" laneChangeMode="5242898" />
    <vehicle id="vehicle_317_gaussian" type="standard_car" route="W_to_E" depart="316" departLane="random" departSpeed="10" laneChangeMode="5242898" />
    <vehicle id="vehicle_270_rand" type="standard_car" route="E_to_W" depart="321" departLane="random" departSpeed="10" laneChangeMode="5242898" />
    <vehicle id="vehicle_351_gaussian" type="standard_car" route="W_to_E" depart="325" departLane="random" departSpeed="10" laneChangeMode="5242898" />
    <vehicle id="vehicle_353_gaussian" type="standard_car" route="W_to_E" depart="325" departLane="random" departSpeed="10" laneChangeMode="5242898" />
    <vehicle id="vehicle_550_rand" type="standard_car" route="E_to_W" depart="327" departLane="random" departSpeed="10" laneChangeMode="5242898" />
    <vehicle id="vehicle_203_gaussian" type="standard_car" route="W_to_E" depart="328" departLane="random" departSpeed="10" laneChangeMode="5242898" />
    <vehicle id="vehicle_91_rand" type="standard_car" route="E_to_W" depart="329" departLane="random" departSpeed="10" laneChangeMode="5242898" />
    <vehicle id="vehicle_144_gaussian" type="standard_car" route="W_to_E" depart="336" departLane="random" departSpeed="10" laneChangeMode="5242898" />
    <vehicle id="vehicle_40_gaussian" type="standard_car" route="W_to_E" depart="336" departLane="random" departSpeed="10" laneChangeMode="5242898" />
    <vehicle id="vehicle_432_rand" type="standard_car" route="S_to_N" depart="341" departLane="random" departSpeed="10" laneChangeMode="5242898" />
    <vehicle id="vehicle_370_gaussian" type="standard_car" route="W_to_N" depart="344" departLane="random" departSpeed="10" laneChangeMode="5242898" />
    <vehicle id="vehicle_452_rand" type="standard_car" route="E_to_W" depart="345" departLane="random" departSpeed="10" laneChangeMode="5242898" />
    <vehicle id="vehicle_306_gaussian" type="standard_car" route="W_to_E" depart="346" departLane="random" departSpeed="10" laneChangeMode="5242898" />
    <vehicle id="vehicle_88_rand" type="standard_car" route="E_to_S" depart="346" departLane="random" departSpeed="10" laneChangeMode="5242898" />
    <vehicle id="vehicle_179_rand" type="standard_car" route="E_to_W" depart="348" departLane="random" departSpeed="10" laneChangeMode="5242898" />
    <vehicle id="vehicle_322_rand" type="standard_car" route="E_to_W" depart="349" departLane="random" departSpeed="10" laneChangeMode="5242898" />
    <vehicle id="vehicle_392_gaussian" type="standard_car" route="W_to_N" depart="349" departLane="random" departSpeed="10" laneChangeMode="5242898" />
    <vehicle id="vehicle_178_rand" type="standard_car" route="N_to_S" depart="350" departLane="random" departSpeed="10" laneChangeMode="5242898" />
    <vehicle id="vehicle_139_gaussian" type="standard_car" route="W_to_N" depart="351" departLane="random" departSpeed="10" laneChangeMode="5242898" />
    <vehicle id="vehicle_237_gaussian" type="standard_car" route="W_to_E" depart="355" departLane="random" departSpeed="10" laneChangeMode="5242898" />
    <vehicle id="vehicle_33_rand" type="standard_car" route="E_to_W" depart="360" departLane="random" departSpeed="10" laneChangeMode="5242898" />
    <vehicle id="vehicle_348_gaussian" type="standard_car" route="W_to_E" depart="362" departLane="random" departSpeed="10" laneChangeMode="5242898" />
    <vehicle id="vehicle_257_gaussian" type="standard_car" route="W_to_E" depart="367" departLane="random" departSpeed="10" laneChangeMode="5242898" />
    <vehicle id="vehicle_44_gaussian" type="standard_car" route="W_to_E" depart="367" departLane="random" departSpeed="10" laneChangeMode="5242898" />
    <vehicle id="vehicle_569_rand" type="standard_car" route="W_to_N" depart="368" departLane="random" departSpeed="10" laneChangeMode="5242898" />
    <vehicle id="vehicle_100_gaussian" type="standard_car" route="W_to_E" depart="369" departLane="random" departSpeed="10" laneChangeMode="5242898" />
    <vehicle id="vehicle_193_gaussian" type="standard_car" route="W_to_E" depart="373" departLane="random" departSpeed="10" laneChangeMode="5242898" />
    <vehicle id="vehicle_357_gaussian" type="standard_car" route="W_to_E" depart="373" departLane="random" departSpeed="10" laneChangeMode="5242898" />
    <vehicle id="vehicle_362_gaussian" type="standard_car" route="W_to_S" depart="374" departLane="random" departSpeed="10" laneChangeMode="5242898" />
    <vehicle id="vehicle_146_gaussian" type="standard_car" route="W_to_E" depart="376" departLane="random" departSpeed="10" laneChangeMode="5242898" />
    <vehicle id="vehicle_232_gaussian" type="standard_car" route="W_to_E" depart="376" departLane="random" departSpeed="10" laneChangeMode="5242898" />
    <vehicle id="vehicle_185_rand" type="standard_car" route="E_to_W" depart="378" departLane="random" departSpeed="10" laneChangeMode="5242898" />
    <vehicle id="vehicle_188_gaussian" type="standard_car" route="W_to_S" depart="378" departLane="random" departSpeed="10" laneChangeMode="5242898" />
    <vehicle id="vehicle_399_gaussian" type="standard_car" route="W_to_E" depart="382" departLane="random" departSpeed="10" laneChangeMode="5242898" />
    <vehicle id="vehicle_539_rand" type="standard_car" route="N_to_S" depart="383" departLane="random" departSpeed="10" laneChangeMode="5242898" />
    <vehicle id="vehicle_296_gaussian" type="standard_car" route="W_to_S" depart="387" departLane="random" departSpeed="10" laneChangeMode="5242898" />
    <vehicle id="vehicle_365_gaussian" type="standard_car" route="W_to_E" depart="391" departLane="random" departSpeed="10" laneChangeMode="5242898" />
    <vehicle id="vehicle_63_gaussian" type="standard_car" route="W_to_E" depart="391" departLane="random" departSpeed="10" laneChangeMode="5242898" />
    <vehicle id="vehicle_56_gaussian" type="standard_car" route="W_to_E" depart="392" departLane="random" departSpeed="10" laneChangeMode="5242898" />
    <vehicle id="vehicle_136_gaussian" type="standard_car" route="W_to_E" depart="394" departLane="random" departSpeed="10" laneChangeMode="5242898" />
    <vehicle id="vehicle_243_rand" type="standard_car" route="W_to_E" depart="395" departLane="random" departSpeed="10" laneChangeMode="5242898" />
    <vehicle id="vehicle_204_gaussian" type="standard_car" route="W_to_E" depart="396" departLane="random" departSpeed="10" laneChangeMode="5242898" />
    <vehicle id="vehicle_228_gaussian" type="standard_car" route="W_to_E" depart="396" departLane="random" departSpeed="10" laneChangeMode="5242898" />
    <vehicle id="vehicle_242_gaussian" type="standard_car" route="W_to_E" depart="396" departLane="random" departSpeed="10" laneChangeMode="5242898" />
    <vehicle id="vehicle_121_rand" type="standard_car" route="E_to_W" depart="400" departLane="random" departSpeed="10" laneChangeMode="5242898" />
    <vehicle id="vehicle_199_gaussian" type="standard_car" route="W_to_N" depart="404" departLane="random" departSpeed="10" laneChangeMode="5242898" />
    <vehicle id="vehicle_245_gaussian" type="standard_car" route="W_to_E" depart="405" departLane="random" departSpeed="10" laneChangeMode="5242898" />
    <vehicle id="vehicle_211_gaussian" type="standard_car" route="W_to_E" depart="406" departLane="random" departSpeed="10" laneChangeMode="5242898" />
    <vehicle id="vehicle_241_gaussian" type="standard_car" route="W_to_S" depart="406" departLane="random" departSpeed="10" laneChangeMode="5242898" />
    <vehicle id="vehicle_369_gaussian" type="standard_car" route="W_to_E" depart="407" departLane="random" departSpeed="10" laneChangeMode="5242898" />
    <vehicle id="vehicle_138_rand" type="standard_car" route="E_to_W" depart="410" departLane="random" departSpeed="10" laneChangeMode="5242898" />
    <vehicle id="vehicle_272_gaussian" type="standard_car" route="W_to_E" depart="412" departLane="random" departSpeed="10" laneChangeMode="5242898" />
    <vehicle id="vehicle_150_gaussian" type="standard_car" route="W_to_E" depart="417" departLane="random" departSpeed="10" laneChangeMode="5242898" />
    <vehicle id="vehicle_216_gaussian" type="standard_car" route="W_to_E" depart="417" departLane="random" departSpeed="10" laneChangeMode="5242898" />
    <vehicle id="vehicle_290_rand" type="standard_car" route="N_to_S" depart="418" departLane="random" departSpeed="10" laneChangeMode="5242898" />
    <vehicle id="vehicle_302_gaussian" type="standard_car" route="W_to_E" depart="418" departLane="random" departSpeed="10" laneChangeMode="5242898" />
    <vehicle id="vehicle_344_rand" type="standard_car" route="W_to_E" depart="419" departLane="random" departSpeed="10" laneChangeMode="5242898" />
    <vehicle id="vehicle_389_gaussian" type="standard_car" route="W_to_S" depart="419" departLane="random" departSpeed="10" laneChangeMode="5242898" />
    <vehicle id="vehicle_213_gaussian" type="standard_car" route="W_to_E" depart="421" departLane="random" departSpeed="10" laneChangeMode="5242898" />
    <vehicle id="vehicle_45_rand" type="standard_car" route="S_to_N" depart="421" departLane="random" departSpeed="10" laneChangeMode="5242898" />
    <vehicle id="vehicle_312_gaussian" type="standard_car" route="W_to_N" depart="422" departLane="random" departSpeed="10" laneChangeMode="5242898" />
    <vehicle id="vehicle_320_gaussian" type="standard_car" route="W_to_E" depart="423" departLane="random" departSpeed="10" laneChangeMode="5242898" />
    <vehicle id="vehicle_328_gaussian" type="standard_car" route="W_to_E" depart="424" departLane="random" departSpeed="10" laneChangeMode="5242898" />
    <vehicle id="vehicle_373_rand" type="standard_car" route="W_to_E" depart="424" departLane="random" departSpeed="10" laneChangeMode="5242898" />
    <vehicle id="vehicle_110_gaussian" type="standard_car" route="W_to_E" depart="427" departLane="random" departSpeed="10" laneChangeMode="5242898" />
    <vehicle id="vehicle_337_gaussian" type="standard_car" route="W_to_N" depart="427" departLane="random" departSpeed="10" laneChangeMode="5242898" />
    <vehicle id="vehicle_38_gaussian" type="standard_car" route="W_to_N" depart="431" departLane="random" departSpeed="10" laneChangeMode="5242898" />
    <vehicle id="vehicle_210_gaussian" type="standard_car" route="W_to_N" depart="435" departLane="random" departSpeed="10" laneChangeMode="5242898" />
    <vehicle id="vehicle_253_gaussian" type="standard_car" route="W_to_E" depart="435" departLane="random" departSpeed="10" laneChangeMode="5242898" />
    <vehicle id="vehicle_179_gaussian" type="standard_car" route="W_to_E" depart="437" departLane="random" departSpeed="10" laneChangeMode="5242898" />
    <vehicle id="vehicle_326_gaussian" type="standard_car" route="W_to_E" depart="439" departLane="random" departSpeed="10" laneChangeMode="5242898" />
    <vehicle id="vehicle_267_gaussian" type="standard_car" route="W_to_S" depart="440" departLane="random" departSpeed="10" laneChangeMode="5242898" />
    <vehicle id="vehicle_311_gaussian" type="standard_car" route="W_to_E" depart="440" departLane="random" departSpeed="10" laneChangeMode="5242898" />
    <vehicle id="vehicle_407_rand" type="standard_car" route="S_to_N" depart="442" departLane="random" departSpeed="10" laneChangeMode="5242898" />
    <vehicle id="vehicle_21_rand" type="standard_car" route="W_to_E" depart="443" departLane="random" departSpeed="10" laneChangeMode="5242898" />
    <vehicle id="vehicle_165_gaussian" type="standard_car" route="W_to_E" depart="451" departLane="random" departSpeed="10" laneChangeMode="5242898" />
    <vehicle id="vehicle_197_rand" type="standard_car" route="W_to_S" depart="451" departLane="random" departSpeed="10" laneChangeMode="5242898" />
    <vehicle id="vehicle_295_rand" type="standard_car" route="E_to_S" depart="451" departLane="random" departSpeed="10" laneChangeMode="5242898" />
    <vehicle id="vehicle_396_gaussian" type="standard_car" route="W_to_E" depart="451" departLane="random" departSpeed="10" laneChangeMode="5242898" />
    <vehicle id="vehicle_186_gaussian" type="standard_car" route="W_to_E" depart="453" departLane="random" departSpeed="10" laneChangeMode="5242898" />
    <vehicle id="vehicle_276_gaussian" type="standard_car" route="W_to_E" depart="454" departLane="random" departSpeed="10" laneChangeMode="5242898" />
    <vehicle id="vehicle_52_gaussian" type="standard_car" route="W_to_E" depart="454" departLane="random" departSpeed="10" laneChangeMode="5242898" />
    <vehicle id="vehicle_365_rand" type="standard_car" route="S_to_N" depart="455" departLane="random" departSpeed="10" laneChangeMode="5242898" />
    <vehicle id="vehicle_252_gaussian" type="standard_car" route="W_to_E" depart="458" departLane="random" departSpeed="10" laneChangeMode="5242898" />
    <vehicle id="vehicle_50_rand" type="standard_car" route="N_to_S" depart="460" departLane="random" departSpeed="10" laneChangeMode="5242898" />
    <vehicle id="vehicle_132_gaussian" type="standard_car" route="W_to_E" depart="464" departLane="random" departSpeed="10" laneChangeMode="5242898" />
    <vehicle id="vehicle_313_gaussian" type="standard_car" route="W_to_E" depart="469" departLane="random" departSpeed="10" laneChangeMode="5242898" />
    <vehicle id="vehicle_344_gaussian" type="standard_car" route="W_to_E" depart="469" departLane="random" departSpeed="10" laneChangeMode="5242898" />
    <vehicle id="vehicle_155_rand" type="standard_car" route="E_to_W" depart="470" departLane="random" departSpeed="10" laneChangeMode="5242898" />
    <vehicle id="vehicle_238_rand" type="standard_car" route="E_to_W" depart="470" departLane="random" departSpeed="10" laneChangeMode="5242898" />
    <vehicle id="vehicle_158_rand" type="standard_car" route="W_to_S" depart="471" departLane="random" departSpeed="10" laneChangeMode="5242898" />
    <vehicle id="vehicle_24_gaussian" type="standard_car" route="W_to_E" depart="471" departLane="random" departSpeed="10" laneChangeMode="5242898" />
    <vehicle id="vehicle_289_rand" type="standard_car" route="E_to_W" depart="471" departLane="random" departSpeed="10" laneChangeMode="5242898" />
    <vehicle id="vehicle_480_rand" type="standard_car" route="W_to_E" depart="471" departLane="random" departSpeed="10" laneChangeMode="5242898" />
    <vehicle id="vehicle_71_gaussian" type="standard_car" route="W_to_E" depart="471" departLane="random" departSpeed="10" laneChangeMode="5242898" />
    <vehicle id="vehicle_571_rand" type="standard_car" route="E_to_W" depart="473" departLane="random" departSpeed="10" laneChangeMode="5242898" />
    <vehicle id="vehicle_415_rand" type="standard_car" route="E_to_W" depart="474" departLane="random" departSpeed="10" laneChangeMode="5242898" />
    <vehicle id="vehicle_120_gaussian" type="standard_car" route="W_to_E" depart="475" departLane="random" departSpeed="10" laneChangeMode="5242898" />
    <vehicle id="vehicle_221_gaussian" type="standard_car" route="W_to_E" depart="477" departLane="random" departSpeed="10" laneChangeMode="5242898" />
    <vehicle id="vehicle_505_rand" type="standard_car" route="N_to_S" depart="480" departLane="random" departSpeed="10" laneChangeMode="5242898" />
    <vehicle id="vehicle_96_gaussian" type="standard_car" route="W_to_E" depart="481" departLane="random" departSpeed="10" laneChangeMode="5242898" />
    <vehicle id="vehicle_388_gaussian" type="standard_car" route="W_to_E" depart="482" departLane="random" departSpeed="10" laneChangeMode="5242898" />
    <vehicle id="vehicle_248_gaussian" type="standard_car" route="W_to_E" depart="485" departLane="random" departSpeed="10" laneChangeMode="5242898" />
    <vehicle id="vehicle_332_gaussian" type="standard_car" route="W_to_S" depart="485" departLane="random" departSpeed="10" laneChangeMode="5242898" />
    <vehicle id="vehicle_258_gaussian" type="standard_car" route="W_to_E" depart="486" departLane="random" departSpeed="10" laneChangeMode="5242898" />
    <vehicle id="vehicle_72_gaussian" type="standard_car" route="W_to_E" depart="486" departLane="random" departSpeed="10" laneChangeMode="5242898" />
    <vehicle id="vehicle_60_gaussian" type="standard_car" route="W_to_E" depart="490" departLane="random" departSpeed="10" laneChangeMode="5242898" />
    <vehicle id="vehicle_80_gaussian" type="standard_car" route="W_to_E" depart="491" departLane="random" departSpeed="10" laneChangeMode="5242898" />
    <vehicle id="vehicle_187_gaussian" type="standard_car" route="W_to_N" depart="492" departLane="random" departSpeed="10" laneChangeMode="5242898" />
    <vehicle id="vehicle_86_gaussian" type="standard_car" route="W_to_E" depart="495" departLane="random" departSpeed="10" laneChangeMode="5242898" />
    <vehicle id="vehicle_47_rand" type="standard_car" route="W_to_E" depart="498" departLane="random" departSpeed="10" laneChangeMode="5242898" />
    <vehicle id="vehicle_239_gaussian" type="standard_car" route="W_to_E" depart="501" departLane="random" departSpeed="10" laneChangeMode="5242898" />
    <vehicle id="vehicle_395_gaussian" type="standard_car" route="W_to_E" depart="507" departLane="random" departSpeed="10" laneChangeMode="5242898" />
    <vehicle id="vehicle_11_gaussian" type="standard_car" route="W_to_N" depart="512" departLane="random" departSpeed="10" laneChangeMode="5242898" />
    <vehicle id="vehicle_78_gaussian" type="standard_car" route="W_to_E" depart="515" departLane="random" departSpeed="10" laneChangeMode="5242898" />
    <vehicle id="vehicle_345_gaussian" type="standard_car" route="W_to_E" depart="519" departLane="random" departSpeed="10" laneChangeMode="5242898" />
    <vehicle id="vehicle_102_gaussian" type="standard_car" route="W_to_N" depart="520" departLane="random" departSpeed="10" laneChangeMode="5242898" />
    <vehicle id="vehicle_218_rand" type="standard_car" route="E_to_W" depart="520" departLane="random" departSpeed="10" laneChangeMode="5242898" />
    <vehicle id="vehicle_427_rand" type="standard_car" route="E_to_N" depart="526" departLane="random" departSpeed="10" laneChangeMode="5242898" />
    <vehicle id="vehicle_423_rand" type="standard_car" route="E_to_W" depart="527" departLane="random" departSpeed="10" laneChangeMode="5242898" />
    <vehicle id="vehicle_92_gaussian" type="standard_car" route="W_to_E" depart="529" departLane="random" departSpeed="10" laneChangeMode="5242898" />
    <vehicle id="vehicle_166_gaussian" type="standard_car" route="W_to_E" depart="534" departLane="random" departSpeed="10" laneChangeMode="5242898" />
    <vehicle id="vehicle_123_gaussian" type="standard_car" route="W_to_N" depart="536" departLane="random" departSpeed="10" laneChangeMode="5242898" />
    <vehicle id="vehicle_313_rand" type="standard_car" route="S_to_E" depart="538" departLane="random" departSpeed="10" laneChangeMode="5242898" />
    <vehicle id="vehicle_372_gaussian" type="standard_car" route="W_to_E" depart="540" departLane="random" departSpeed="10" laneChangeMode="5242898" />
    <vehicle id="vehicle_256_rand" type="standard_car" route="N_to_S" depart="541" departLane="random" departSpeed="10" laneChangeMode="5242898" />
    <vehicle id="vehicle_148_gaussian" type="standard_car" route="W_to_E" depart="542" departLane="random" departSpeed="10" laneChangeMode="5242898" />
    <vehicle id="vehicle_390_gaussian" type="standard_car" route="W_to_E" depart="546" departLane="random" departSpeed="10" laneChangeMode="5242898" />
    <vehicle id="vehicle_274_rand" type="standard_car" route="S_to_E" depart="561" departLane="random" departSpeed="10" laneChangeMode="5242898" />
    <vehicle id="vehicle_161_rand" type="standard_car" route="E_to_W" depart="563" departLane="random" departSpeed="10" laneChangeMode="5242898" />
    <vehicle id="vehicle_130_gaussian" type="standard_car" route="W_to_E" depart="564" departLane="random" departSpeed="10" laneChangeMode="5242898" />
    <vehicle id="vehicle_151_gaussian" type="standard_car" route="E_to_W" depart="565" departLane="random" departSpeed="10" laneChangeMode="5242898" />