                
<routes>
            <vType accel="1.0" decel="4.5" id="standard_car" length="5.0" minGap="2.5" maxSpeed="25" sigma="0.5" laneChangeMode="5242898"/>
            
            <!-- route definition (the car route) -->

            <route id="W_to_N" edges="W_in N_out"/>
            <route id="W_to_E" edges="W_in E_out"/>
            <route id="W_to_S" edges="W_in S_out"/>
            <route id="N_to_W" edges="N_in W_out"/>
            <route id="N_to_E" edges="N_in E_out"/>
            <route id="N_to_S" edges="N_in S_out"/>
            <route id="E_to_W" edges="E_in W_out"/>
            <route id="E_to_N" edges="E_in N_out"/>
            <route id="E_to_S" edges="E_in S_out"/>
            <route id="S_to_W" edges="S_in W_out"/>
            <route id="S_to_N" edges="S_in N_out"/>
            <route id="S_to_E" edges="S_in E_out"/>
    <vehicle id="vehicle_328_rand" type="standard_car" route="S_to_N" depart="7" departLane="random" departSpeed="10" laneChangeMode="5242898" />
    <vehicle id="vehicle_12_rand" type="standard_car" route="E_to_W" depart="11" departLane="random" departSpeed="10" laneChangeMode="5242898" />
    <vehicle id="vehicle_73_rand" type="standard_car" route="S_to_N" depart="21" departLane="random" departSpeed="10" laneChangeMode="5242898" />
    <vehicle id="vehicle_21_rand" type="standard_car" route="N_to_S" depart="29" departLane="random" departSpeed="10" laneChangeMode="5242898" />
    <vehicle id="vehicle_416_rand" type="standard_car" route="E_to_W" depart="36" departLane="random" departSpeed="10" laneChangeMode="5242898" />
    <vehicle id="vehicle_344_rand" type="standard_car" route="S_to_N" depart="46" departLane="random" departSpeed="10" laneChangeMode="5242898" />
    <vehicle id="vehicle_325_rand" type="standard_car" route="N_to_S" depart="54" departLane="random" departSpeed="10" laneChangeMode="5242898" />
    <vehicle id="vehicle_563_rand" type="standard_car" route="E_to_W" depart="58" departLane="random" departSpeed="10" laneChangeMode="5242898" />
    <vehicle id="vehicle_178_rand" type="standard_car" route="N_to_S" depart="60" departLane="random" departSpeed="10" laneChangeMode="5242898" />
    <vehicle id="vehicle_541_rand" type="standard_car" route="E_to_S" depart="62" departLane="random" departSpeed="10" laneChangeMode="5242898" />
    <vehicle id="vehicle_433_rand" type="standard_car" route="W_to_E" depart="65" departLane="random" departSpeed="10" laneChangeMode="5242898" />
    <vehicle id="vehicle_451_rand" type="standard_car" route="W_to_E" depart="66" departLane="random" departSpeed="10" laneChangeMode="5242898" />
    <vehicle id="vehicle_65_rand" type="standard_car" route="E_to_W" depart="66" departLane="random" departSpeed="10" laneChangeMode="5242898" />
    <vehicle id="vehicle_302_rand" type="standard_car" route="N_to_S" depart="82" departLane="random" departSpeed="10" laneChangeMode="5242898" />
    <vehicle id="vehicle_157_rand" type="standard_car" route="N_to_S" depart="87" departLane="random" departSpeed="10" laneChangeMode="5242898" />
    <vehicle id="vehicle_511_rand" type="standard_car" route="S_to_E" depart="95" departLane="random" departSpeed="10" laneChangeMode="5242898" />
    <vehicle id="vehicle_80_rand" type="standard_car" route="E_to_W" depart="97" departLane="random" departSpeed="10" laneChangeMode="5242898" />
    <vehicle id="vehicle_76_rand" type="standard_car" route="W_to_E" depart="98" departLane="random" departSpeed="10" laneChangeMode="5242898" />
    <vehicle id="vehicle_403_rand" type="standard_car" route="N_to_S" depart="99" departLane="random" departSpeed="10" laneChangeMode="5242898" />
    <vehicle id="vehicle_173_rand" type="standard_car" route="E_to_S" depart="103" departLane="random" departSpeed="10" laneChangeMode="5242898" />
    <vehicle id="vehicle_195_rand" type="standard_car" route="S_to_N" depart="110" departLane="random" departSpeed="10" laneChangeMode="5242898" />
    <vehicle id="vehicle_17_rand" type="standard_car" route="N_to_S" depart="114" departLane="random" departSpeed="10" laneChangeMode="5242898" />
    <vehicle id="vehicle_273_rand" type="standard_car" route="N_to_S" depart="117" departLane="random" departSpeed="10" laneChangeMode="5242898" />
    <vehicle id="vehicle_113_rand" type="standard_car" route="N_to_E" depart="120" departLane="random" departSpeed="10" laneChangeMode="5242898" />
    <vehicle id="vehicle_274_rand" type="standard_car" route="W_to_E" depart="125" departLane="random" departSpeed="10" laneChangeMode="5242898" />
    <vehicle id="vehicle_531_rand" type="standard_car" route="W_to_N" depart="144" departLane="random" departSpeed="10" laneChangeMode="5242898" />
    <vehicle id="vehicle_85_rand" type="standard_car" route="S_to_N" depart="145" departLane="random" departSpeed="10" laneChangeMode="5242898" />
    <vehicle id="vehicle_135_rand" type="standard_car" route="N_to_S" depart="148" departLane="random" departSpeed="10" laneChangeMode="5242898" />
    <vehicle id="vehicle_189_rand" type="standard_car" route="E_to_N" depart="149" departLane="random" departSpeed="10" laneChangeMode="5242898" />
    <vehicle id="vehicle_297_rand" type="standard_car" route="S_to_N" depart="155" departLane="random" departSpeed="10" laneChangeMode="5242898" />
    <vehicle id="vehicle_27_rand" type="standard_car" route="S_to_W" depart="165" departLane="random" departSpeed="10" laneChangeMode="5242898" />
    <vehicle id="vehicle_82_rand" type="standard_car" route="W_to_E" depart="170" departLane="random" departSpeed="10" laneChangeMode="5242898" />
    <vehicle id="vehicle_155_rand" type="standard_car" route="W_to_S" depart="178" departLane="random" departSpeed="10" laneChangeMode="5242898" />
    <vehicle id="vehicle_30_rand" type="standard_car" route="S_to_E" depart="184" departLane="random" departSpeed="10" laneChangeMode="5242898" />
    <vehicle id="vehicle_589_rand" type="standard_car" route="N_to_W" depart="186" departLane="random" departSpeed="10" laneChangeMode="5242898" />
    <vehicle id="vehicle_330_rand" type="standard_car" route="E_to_W" depart="188" departLane="random" departSpeed="10" laneChangeMode="5242898" />
    <vehicle id="vehicle_448_rand" type="standard_car" route="W_to_S" depart="188" departLane="random" departSpeed="10" laneChangeMode="5242898" />
    <vehicle id="vehicle_547_rand" type="standard_car" route="S_to_N" depart="197" departLane="random" departSpeed="10" laneChangeMode="5242898" />
    <vehicle id="vehicle_159_rand" type="standard_car" route="W_to_E" depart="209" departLane="random" departSpeed="10" laneChangeMode="5242898" />
    <vehicle id="vehicle_298_rand" type="standard_car" route="S_to_W" depart="210" departLane="random" departSpeed="10" laneChangeMode="5242898" />
    <vehicle id="vehicle_379_rand" type="standard_car" route="S_to_N" depart="213" departLane="random" departSpeed="10" laneChangeMode="5242898" />
    <vehicle id="vehicle_402_rand" type="standard_car" route="W_to_S" depart="213" departLane="random" departSpeed="10" laneChangeMode="5242898" />
    <vehicle id="vehicle_229_rand" type="standard_car" route="S_to_N" depart="216" departLane="random" departSpeed="10" laneChangeMode="5242898" />
    <vehicle id="vehicle_180_rand" type="standard_car" route="W_to_S" depart="220" departLane="random" departSpeed="10" laneChangeMode="5242898" />
    <vehicle id="vehicle_553_rand" type="standard_car" route="E_to_W" depart="220" departLane="random" departSpeed="10" laneChangeMode="5242898" />
    <vehicle id="vehicle_527_rand" type="standard_car" route="N_to_W" depart="237" departLane="random" departSpeed="10" laneChangeMode="5242898" />
    <vehicle id="vehicle_202_rand" type="standard_car" route="S_to_N" depart="238" departLane="random" departSpeed="10" laneChangeMode="5242898" />
    <vehicle id="vehicle_185_rand" type="standard_car" route="E_to_W" depart="241" departLane="random" departSpeed="10" laneChangeMode="5242898" />
    <vehicle id="vehicle_38_rand" type="standard_car" route="W_to_E" depart="242" departLane="random" departSpeed="10" laneChangeMode="5242898" />
    <vehicle id="vehicle_508_rand" type="standard_car" route="W_to_S" depart="249" departLane="random" departSpeed="10" laneChangeMode="5242898" />
    <vehicle id="vehicle_69_rand" type="standard_car" route="S_to_N" depart="250" departLane="random" departSpeed="10" laneChangeMode="5242898" />
    <vehicle id="vehicle_406_rand" type="standard_car" route="N_to_S" depart="254" departLane="random" departSpeed="10" laneChangeMode="5242898" />
    <vehicle id="vehicle_463_rand" type="standard_car" route="S_to_N" depart="260" departLane="random" departSpeed="10" laneChangeMode="5242898" />
    <vehicle id="vehicle_374_rand" type="standard_car" route="S_to_N" depart="265" departLane="random" departSpeed="10" laneChangeMode="5242898" />
    <vehicle id="vehicle_332_rand" type="standard_car" route="W_to_S" depart="268" departLane="random" departSpeed="10" laneChangeMode="5242898" />
    <vehicle id="vehicle_102_rand" type="standard_car" route="N_to_S" depart="276" departLane="random" departSpeed="10" laneChangeMode="5242898" />
    <vehicle id="vehicle_570_rand" type="standard_car" route="E_to_W" depart="278" departLane="random" departSpeed="10" laneChangeMode="5242898" />
    <vehicle id="vehicle_28_rand" type="standard_car" route="S_to_N" depart="284" departLane="random" departSpeed="10" laneChangeMode="5242898" />
    <vehicle id="vehicle_329_rand" type="standard_car" route="W_to_E" depart="284" departLane="random" departSpeed="10" laneChangeMode="5242898" />
    <vehicle id="vehicle_524_rand" type="standard_car" route="N_to_E" depart="305" departLane="random" departSpeed="10" laneChangeMode="5242898" />
    <vehicle id="vehicle_177_rand" type="standard_car" route="N_to_S" depart="312" departLane="random" departSpeed="10" laneChangeMode="5242898" />
    <vehicle id="vehicle_392_gaussian" type="standard_car" route="S_to_N" depart="319" departLane="random" departSpeed="10" laneChangeMode="5242898" />
    <vehicle id="vehicle_417_rand" type="standard_car" route="S_to_N" depart="324" departLane="random" departSpeed="10" laneChangeMode="5242898" />
    <vehicle id="vehicle_120_rand" type="standard_car" route="S_to_N" depart="337" departLane="random" departSpeed="10" laneChangeMode="5242898" />
    <vehicle id="vehicle_52_gaussian" type="standard_car" route="S_to_N" depart="338" departLane="random" departSpeed="10" laneChangeMode="5242898" />
    <vehicle id="vehicle_47_rand" type="standard_car" route="N_to_S" depart="354" departLane="random" departSpeed="10" laneChangeMode="5242898" />
    <vehicle id="vehicle_577_rand" type="standard_car" route="N_to_E" depart="354" departLane="random" departSpeed="10" laneChangeMode="5242898" />
    <vehicle id="vehicle_493_rand" type="standard_car" route="S_to_N" depart="357" departLane="random" departSpeed="10" laneChangeMode="5242898" />
    <vehicle id="vehicle_479_rand" type="standard_car" route="W_to_E" depart="365" departLane="random" departSpeed="10" laneChangeMode="5242898" />
    <vehicle id="vehicle_530_rand" type="standard_car" route="N_to_W" depart="366" departLane="random" departSpeed="10" laneChangeMode="5242898" />
    <vehicle id="vehicle_392_rand" type="standard_car" route="S_to_N" depart="369" departLane="random" departSpeed="10" laneChangeMode="5242898" />
    <vehicle id="vehicle_360_rand" type="standard_car" route="W_to_E" depart="371" departLane="random" departSpeed="10" laneChangeMode="5242898" />
    <vehicle id="vehicle_449_rand" type="standard_car" route="E_to_W" depart="372" departLane="random" departSpeed="10" laneChangeMode="5242898" />
    <vehicle id="vehicle_364_gaussian" type="standard_car" route="S_to_W" depart="374" departLane="random" departSpeed="10" laneChangeMode="5242898" />
    <vehicle id="vehicle_319_rand" type="standard_car" route="S_to_N" depart="375" departLane="random" departSpeed="10" laneChangeMode="5242898" />
    <vehicle id="vehicle_534_rand" type="standard_car" route="S_to_N" depart="377" departLane="random" departSpeed="10" laneChangeMode="5242898" />
    <vehicle id="vehicle_424_rand" type="standard_car" route="S_to_W" depart="380" departLane="random" departSpeed="10" laneChangeMode="5242898" />
    <vehicle id="vehicle_263_rand" type="standard_car" route="S_to_N" depart="384" departLane="random" departSpeed="10" laneChangeMode="5242898" />
    <vehicle id="vehicle_137_rand" type="standard_car" route="N_to_S" depart="387" departLane="random" departSpeed="10" laneChangeMode="5242898" />
    <vehicle id="vehicle_99_rand" type="standard_car" route="S_to_E" depart="395" departLane="random" departSpeed="10" laneChangeMode="5242898" />
    <vehicle id="vehicle_150_rand" type="standard_car" route="E_to_W" depart="398" departLane="random" departSpeed="10" laneChangeMode="5242898" />
    <vehicle id="vehicle_158_gaussian" type="standard_car" route="W_to_N" depart="399" departLane="random" departSpeed="10" laneChangeMode="5242898" />
    <vehicle id="vehicle_351_gaussian" type="standard_car" route="W_to_N" depart="399" departLane="random" departSpeed="10" laneChangeMode="5242898" />
    <vehicle id="vehicle_127_gaussian" type="standard_car" route="W_to_E" depart="409" departLane="random" departSpeed="10" laneChangeMode="5242898" />
    <vehicle id="vehicle_357_gaussian" type="standard_car" route="S_to_N" depart="410" departLane="random" departSpeed="10" laneChangeMode="5242898" />
    <vehicle id="vehicle_180_gaussian" type="standard_car" route="S_to_N" depart="411" departLane="random" departSpeed="10" laneChangeMode="5242898" />
    <vehicle id="vehicle_443_rand" type="standard_car" route="E_to_W" depart="423" departLane="random" departSpeed="10" laneChangeMode="5242898" />
    <vehicle id="vehicle_15_gaussian" type="standard_car" route="S_to_N" depart="427" departLane="random" departSpeed="10" laneChangeMode="5242898" />
    <vehicle id="vehicle_571_rand" type="standard_car" route="S_to_N" depart="443" departLane="random" departSpeed="10" laneChangeMode="5242898" />
    <vehicle id="vehicle_50_rand" type="standard_car" route="S_to_N" depart="444" departLane="random" departSpeed="10" laneChangeMode="5242898" />
    <vehicle id="vehicle_377_gaussian" type="standard_car" route="S_to_N" depart="445" departLane="random" departSpeed="10" laneChangeMode="5242898" />
    <vehicle id="vehicle_83_rand" type="standard_car" route="E_to_W" depart="446" departLane="random" departSpeed="10" laneChangeMode="5242898" />
    <vehicle id="vehicle_431_rand" type="standard_car" route="S_to_N" depart="447" departLane="random" departSpeed="10" laneChangeMode="5242898" />
    <vehicle id="vehicle_0_rand" type="standard_car" route="S_to_N" depart="449" departLane="random" departSpeed="10" laneChangeMode="5242898" />
    <vehicle id="vehicle_199_gaussian" type="standard_car" route="S_to_N" depart="450" departLane="random" departSpeed="10" laneChangeMode="5242898" />
    <vehicle id="vehicle_230_gaussian" type="standard_car" route="S_to_W" depart="450" departLane="random" departSpeed="10" laneChangeMode="5242898" />
    <vehicle id="vehicle_408_rand" type="standard_car" route="N_to_S" depart="450" departLane="random" departSpeed="10" laneChangeMode="5242898" />
    <vehicle id="vehicle_444_rand" type="standard_car" route="W_to_E" depart="452" departLane="random" departSpeed="10" laneChangeMode="5242898" />
    <vehicle id="vehicle_415_rand" type="standard_car" route="W_to_E" depart="453" departLane="random" departSpeed="10" laneChangeMode="5242898" />
    <vehicle id="vehicle_287_gaussian" type="standard_car" route="W_to_S" depart="455" departLane="random" departSpeed="10" laneChangeMode="5242898" />
    <vehicle id="vehicle_374_gaussian" type="standard_car" route="W_to_E" depart="455" departLane="random" departSpeed="10" laneChangeMode="5242898" />
    <vehicle id="vehicle_186_rand" type="standard_car" route="N_to_S" depart="459" departLane="random" departSpeed="10" laneChangeMode="5242898" />
    <vehicle id="vehicle_216_gaussian" type="standard_car" route="W_to_E" depart="465" departLane="random" departSpeed="10" laneChangeMode="5242898" />
    <vehicle id="vehicle_195_gaussian" type="standard_car" route="S_to_N" depart="471" departLane="random" departSpeed="10" laneChangeMode="5242898" />
    <vehicle id="vehicle_103_gaussian" type="standard_car" route="S_to_N" depart="472" departLane="random" departSpeed="10" laneChangeMode="5242898" />
    <vehicle id="vehicle_282_gaussian" type="standard_car" route="S_to_N" depart="472" departLane="random" departSpeed="10" laneChangeMode="5242898" />
    <vehicle id="vehicle_261_gaussian" type="standard_car" route="S_to_N" depart="475" departLane="random" departSpeed="10" laneChangeMode="5242898" />
    <vehicle id="vehicle_261_rand" type="standard_car" route="N_to_S" depart="477" departLane="random" departSpeed="10" laneChangeMode="5242898" />
    <vehicle id="vehicle_30_gaussian" type="standard_car" route="S_to_N" depart="478" departLane="random" departSpeed="10" laneChangeMode="5242898" />
    <vehicle id="vehicle_319_gaussian" type="standard_car" route="W_to_E" depart="481" departLane="random" departSpeed="10" laneChangeMode="5242898" />
    <vehicle id="vehicle_472_rand" type="standard_car" route="E_to_W" depart="482" departLane="random" departSpeed="10" laneChangeMode="5242898" />
    <vehicle id="vehicle_60_rand" type="standard_car" route="S_to_N" depart="484" departLane="random" departSpeed="10" laneChangeMode="5242898" />
    <vehicle id="vehicle_329_gaussian" type="standard_car" route="W_to_E" depart="486" departLane="random" departSpeed="10" laneChangeMode="5242898" />
    <vehicle id="vehicle_257_rand" type="standard_car" route="E_to_N" depart="493" departLane="random" departSpeed="10" laneChangeMode="5242898" />
    <vehicle id="vehicle_293_gaussian" type="standard_car" route="S_to_E" depart="493" departLane="random" departSpeed="10" laneChangeMode="5242898" />
    <vehicle id="vehicle_396_gaussian" type="standard_car" route="S_to_N" depart="493" departLane="random" departSpeed="10" laneChangeMode="5242898" />
    <vehicle id="vehicle_181_rand" type="standard_car" route="N_to_E" depart="496" departLane="random" departSpeed="10" laneChangeMode="5242898" />
    <vehicle id="vehicle_328_gaussian" type="standard_car" route="W_to_E" depart="497" departLane="random" departSpeed="10" laneChangeMode="5242898" />
    <vehicle id="vehicle_336_gaussian" type="standard_car" route="W_to_E" depart="498" departLane="random" departSpeed="10" laneChangeMode="5242898" />
    <vehicle id="vehicle_263_gaussian" type="standard_car" route="S_to_N" depart="500" departLane="random" departSpeed="10" laneChangeMode="5242898" />
    <vehicle id="vehicle_191_gaussian" type="standard_car" route="W_to_E" depart="502" departLane="random" departSpeed="10" laneChangeMode="5242898" />
    <vehicle id="vehicle_453_rand" type="standard_car" route="W_to_E" depart="509" departLane="random" departSpeed="10" laneChangeMode="5242898" />
    <vehicle id="vehicle_130_rand" type="standard_car" route="N_to_S" depart="510" departLane="random" departSpeed="10" laneChangeMode="5242898" />
    <vehicle id="vehicle_196_gaussian" type="standard_car" route="S_to_W" depart="511" departLane="random" departSpeed="10" laneChangeMode="5242898" />
    <vehicle id="vehicle_516_rand" type="standard_car" route="S_to_N" depart="513" departLane="random" departSpeed="10" laneChangeMode="5242898" />
    <vehicle id="vehicle_167_rand" type="standard_car" route="E_to_W" depart="514" departLane="random" departSpeed="10" laneChangeMode="5242898" />
    <vehicle id="vehicle_389_gaussian" type="standard_car" route="S_to_N" depart="514" departLane="random" departSpeed="10" laneChangeMode="5242898" />
    <vehicle id="vehicle_235_gaussian" type="standard_car" route="W_to_E" depart="517" departLane="random" departSpeed="10" laneChangeMode="5242898" />
    <vehicle id="vehicle_339_rand" type="standard_car" route="W_to_E" depart="517" departLane="random" departSpeed="10" laneChangeMode="5242898" />
    <vehicle id="vehicle_131_gaussian" type="standard_car" route="W_to_E" depart="518" departLane="random" departSpeed="10" laneChangeMode="5242898" />
    <vehicle id="vehicle_142_gaussian" type="standard_car" route="S_to_N" depart="519" departLane="random" departSpeed="10" laneChangeMode="5242898" />
    <vehicle id="vehicle_123_gaussian" type="standard_car" route="W_to_E" depart="524" departLane="random" departSpeed="10" laneChangeMode="5242898" />
    <vehicle id="vehicle_366_gaussian" type="standard_car" route="W_to_E" depart="526" departLane="random" departSpeed="10" laneChangeMode="5242898" />
    <vehicle id="vehicle_145_gaussian" type="standard_car" route="W_to_E" depart="527" departLane="random" departSpeed="10" laneChangeMode="5242898" />
    <vehicle id="vehicle_246_rand" type="standard_car" route="N_to_S" depart="533" departLane="random" departSpeed="10" laneChangeMode="5242898" />
    <vehicle id="vehicle_385_rand" type="standard_car" route="S_to_E" depart="534" departLane="random" departSpeed="10" laneChangeMode="5242898" />
    <vehicle id="vehicle_369_rand" type="standard_car" route="S_to_N" depart="536" departLane="random" departSpeed="10" laneChangeMode="5242898" />
    <vehicle id="vehicle_407_rand" type="standard_car" route="W_to_E" depart="537" departLane="random" departSpeed="10" laneChangeMode="5242898" />
    <vehicle id="vehicle_275_gaussian" type="standard_car" route="W_to_S" depart="540" departLane="random" departSpeed="10" laneChangeMode="5242898" />
    <vehicle id="vehicle_114_gaussian" type="standard_car" route="W_to_E" depart="541" departLane="random" departSpeed="10" laneChangeMode="5242898" />
    <vehicle id="vehicle_248_gaussian" type="standard_car" route="S_to_N" depart="541" departLane="random" departSpeed="10" laneChangeMode="5242898" />
    <vehicle id="vehicle_237_gaussian" type="standard_car" route="W_to_N" depart="546" departLane="random" departSpeed="10" laneChangeMode="5242898" />
    <vehicle id="vehicle_335_gaussian" type="standard_car" route="S_to_W" depart="547" departLane="random" departSpeed="10" laneChangeMode="5242898" />
    <vehicle id="vehicle_552_rand" type="standard_car" route="W_to_E" depart="547" departLane="random" departSpeed="10" laneChangeMode="5242898" />
    <vehicle id="vehicle_167_gaussian" type="standard_car" route="S_to_N" depart="549" departLane="random" departSpeed="10" laneChangeMode="5242898" />
    <vehicle id="vehicle_234_rand" type="standard_car" route="S_to_W" depart="549" departLane="random" departSpeed="10" laneChangeMode="5242898" />
    <vehicle id="vehicle_105_rand" type="standard_car" route="S_to_W" depart="550" departLane="random" departSpeed="10" laneChangeMode="5242898" />
    <vehicle id="vehicle_111_gaussian" type="standard_car" route="S_to_N" depart="550" departLane="random" departSpeed="10" laneChangeMode="5242898" />
    <vehicle id="vehicle_223_rand" type="standard_car" route="N_to_S" depart="553" departLane="random" departSpeed="10" laneChangeMode="5242898" />
    <vehicle id="vehicle_24_gaussian" type="standard_car" route="W_to_E" depart="554" departLane="random" departSpeed="10" laneChangeMode="5242898" />
    <vehicle id="vehicle_304_rand" type="standard_car" route="E_to_W" depart="556" departLane="random" departSpeed="10" laneChangeMode="5242898" />
    <vehicle id="vehicle_259_gaussian" type="standard_car" route="S_to_N" depart="558" departLane="random" departSpeed="10" laneChangeMode="5242898" />
    <vehicle id="vehicle_368_gaussian" type="standard_car" route="W_to_S" depart="559" departLane="random" departSpeed="10" laneChangeMode="5242898" />
    <vehicle id="vehicle_369_gaussian" type="standard_car" route="S_to_N" depart="559" departLane="random" departSpeed="10" laneChangeMode="5242898" />
    <vehicle id="vehicle_170_gaussian" type="standard_car" route="W_to_E" depart="560" departLane="random" departSpeed="10" laneChangeMode="5242898" />
    <vehicle id="vehicle_314_gaussian" type="standard_car" route="W_to_E" depart="561" departLane="random" departSpeed="10" laneChangeMode="5242898" />
    <vehicle id="vehicle_320_gaussian" type="standard_car" route="W_to_E" depart="561" departLane="random" departSpeed="10" laneChangeMode="5242898" />
    <vehicle id="vehicle_498_rand" type="standard_car" route="N_to_S" depart="561" departLane="random" departSpeed="10" laneChangeMode="5242898" />
    <vehicle id="vehicle_164_rand" type="standard_car" route="E_to_W" depart="563" departLane="random" departSpeed="10" laneChangeMode="5242898" />
    <vehicle id="vehicle_252_gaussian" type="standard_car" route="S_to_N" depart="565" departLane="random" departSpeed="10" laneChangeMode="5242898" />
    <vehicle id="vehicle_246_gaussian" type="standard_car" route="S_to_N" depart="568" departLane="random" departSpeed="10" laneChangeMode="5242898" />
    <vehicle id="vehicle_141_gaussian" type="standard_car" route="W_to_E" depart="569" departLane="random" departSpeed="10" laneChangeMode="5242898" />
    <vehicle id="vehicle_175_gaussian" type="standard_car" route="W_to_E" depart="569" departLane="random" departSpeed="10" laneChangeMode="5242898" />
    <vehicle id="vehicle_313_gaussian" type="standard_car" route="W_to_E" depart="573" departLane="random" departSpeed="10" laneChangeMode="5242898" />
    <vehicle id="vehicle_289_gaussian" type="standard_car" route="S_to_N" depart="574" departLane="random" departSpeed="10" laneChangeMode="5242898" />
    <vehicle id="vehicle_82_gaussian" type="standard_car" route="S_to_N" depart="575" departLane="random" departSpeed="10" laneChangeMode="5242898" />
    <vehicle id="vehicle_79_gaussian" type="standard_car" route="S_to_W" depart="581" departLane="random" departSpeed="10" laneChangeMode="5242898" />
    <vehicle id="vehicle_89_gaussian" type="standard_car" route="S_to_N" depart="581" departLane="random" departSpeed="10" laneChangeMode="5242898" />
    <vehicle id="vehicle_286_gaussian" type="standard_car" route="S_to_N" depart="584" departLane="random" departSpeed="10" laneChangeMode="5242898" />
    <vehicle id="vehicle_239_gaussian" type="standard_car" route="S_to_N" depart="585" departLane="random" departSpeed="10" laneChangeMode="5242898" />
    <vehicle id="vehicle_316_gaussian" type="standard_car" route="S_to_N" depart="585" departLane="random" departSpeed="10" laneChangeMode="5242898" />
    <vehicle id="vehicle_361_rand" type="standard_car" route="N_to_W" depart="585" departLane="random" departSpeed="10" laneChangeMode="5242898" />
    <vehicle id="vehicle_413_rand" type="standard_car" route="S_to_N" depart="585" departLane="random" departSpeed="10" laneChangeMode="5242898" />
    <vehicle id="vehicle_99_gaussian" type="standard_car" route="W_to_E" depart="588" departLane="random" departSpeed="10" laneChangeMode="5242898" />
    <vehicle id="vehicle_315_gaussian" type="standard_car" route="S_to_N" depart="591" departLane="random" departSpeed="10" laneChangeMode="5242898" />
    <vehicle id="vehicle_4_rand" type="standard_car" route="S_to_N" depart="591" departLane="random" departSpeed="10" laneChangeMode="5242898" />
    <vehicle id="vehicle_138_gaussian" type="standard_car" route="S_to_N" depart="594" departLane="random" departSpeed="10" laneChangeMode="5242898" />
    <vehicle id="vehicle_140_gaussian" type="standard_car" route="W_to_N" depart="594" departLane="random" departSpeed="10" laneChangeMode="5242898" />
    <vehicle id="vehicle_6_gaussian" type="standard_car" route="S_to_N" depart="594" departLane="random" departSpeed="10" laneChangeMode="5242898" />
    <vehicle id="vehicle_75_gaussian" type="standard_car" route="S_to_N" depart="598" departLane="random" departSpeed="10" laneChangeMode="5242898" />
    <vehicle id="vehicle_299_gaussian" type="standard_car" route="W_to_E" depart="599" departLane="random" departSpeed="10" laneChangeMode="5242898" />
    <vehicle id="vehicle_322_gaussian" type="standard_car" route="W_to_E" depart="599" departLane="random" departSpeed="10" laneChangeMode="5242898" />
    <vehicle id="vehicle_323_gaussian" type="standard_car" route="S_to_N" depart="600" departLane="random" departSpeed="10" laneChangeMode="5242898" />
    <vehicle id="vehicle_63_gaussian" type="standard_car" route="W_to_E" depart="601" departLane="random" departSpeed="10" laneChangeMode="5242898" />
    <vehicle id="vehicle_249_gaussian" type="standard_car" route="S_to_N" depart="603" departLane="random" departSpeed="10" laneChangeMode="5242898" />
    <vehicle id="vehicle_236_gaussian" type="standard_car" route="W_to_N" depart="604" departLane="random" departSpeed="10" laneChangeMode="5242898" />
    <vehicle id="vehicle_276_gaussian" type="standard_car" route="W_to_E" depart="604" departLane="random" departSpeed="10" laneChangeMode="5242898" />
    <vehicle id="vehicle_31_gaussian" type="standard_car" route="S_to_N" depart="606" departLane="random" departSpeed="10" laneChangeMode="5242898" />
    <vehicle id="vehicle_379_gaussian" type="standard_car" route="W_to_E" depart="606" departLane="random" departSpeed="10" laneChangeMode="5242898" />
    <vehicle id="vehicle_233_rand" type="standard_car" route="W_to_E" depart="607" departLane="random" departSpeed="10" laneChangeMode="5242898" />
    <vehicle id="vehicle_298_gaussian" type="standard_car" route="W_to_E" depart="607" departLane="random" departSpeed="10" laneChangeMode="5242898" />
    <vehicle id="vehicle_419_rand" type="standard_car" route="W_to_E" depart="608" departLane="random" departSpeed="10" laneChangeMode="5242898" />
    <vehicle id="vehicle_148_gaussian" type="standard_car" route="S_to_E" depart="609" departLane="random" departSpeed="10" laneChangeMode="5242898" />