                
<routes>
            <vType accel="1.0" decel="4.5" id="standard_car" length="5.0" minGap="2.5" maxSpeed="25" sigma="0.5" laneChangeMode="5242898"/>
            
            <!-- route definition (the car route) -->

            <route id="W_to_N" edges="W_in N_out"/>
            <route id="W_to_E" edges="W_in E_out"/>
            <route id="W_to_S" edges="W_in S_out"/>
            <route id="N_to_W" edges="N_in W_out"/>
            <route id="N_to_E" edges="N_in E_out"/>
            <route id="N_to_S" edges="N_in S_out"/>
            <route id="E_to_W" edges="E_in W_out"/>
            <route id="E_to_N" edges="E_in N_out"/>
            <route id="E_to_S" edges="E_in S_out"/>
            <route id="S_to_W" edges="S_in W_out"/>
            <route id="S_to_N" edges="S_in N_out"/>
            <route id="S_to_E" edges="S_in E_out"/>
    <vehicle id="vehicle_198_rand" type="standard_car" route="W_to_E" depart="14" departLane="random" departSpeed="10" laneChangeMode="5242898" />
    <vehicle id="vehicle_16_rand" type="standard_car" route="N_to_S" depart="15" departLane="random" departSpeed="10" laneChangeMode="5242898" />
    <vehicle id="vehicle_354_rand" type="standard_car" route="S_to_N" depart="31" departLane="random" departSpeed="10" laneChangeMode="5242898" />
    <vehicle id="vehicle_317_rand" type="standard_car" route="W_to_S" depart="43" departLane="random" departSpeed="10" laneChangeMode="5242898" />
    <vehicle id="vehicle_395_rand" type="standard_car" route="W_to_E" depart="46" departLane="random" departSpeed="10" laneChangeMode="5242898" />
    <vehicle id="vehicle_526_rand" type="standard_car" route="E_to_W" depart="49" departLane="random" departSpeed="10" laneChangeMode="5242898" />
    <vehicle id="vehicle_185_rand" type="standard_car" route="E_to_W" depart="52" departLane="random" departSpeed="10" laneChangeMode="5242898" />
    <vehicle id="vehicle_549_rand" type="standard_car" route="S_to_N" depart="53" departLane="random" departSpeed="10" laneChangeMode="5242898" />
    <vehicle id="vehicle_173_rand" type="standard_car" route="E_to_W" depart="63" departLane="random" departSpeed="10" laneChangeMode="5242898" />
    <vehicle id="vehicle_539_rand" type="standard_car" route="N_to_S" depart="71" departLane="random" departSpeed="10" laneChangeMode="5242898" />
    <vehicle id="vehicle_505_rand" type="standard_car" route="W_to_E" depart="73" departLane="random" departSpeed="10" laneChangeMode="5242898" />
    <vehicle id="vehicle_252_rand" type="standard_car" route="E_to_W" depart="77" departLane="random" departSpeed="10" laneChangeMode="5242898" />
    <vehicle id="vehicle_55_rand" type="standard_car" route="W_to_E" depart="77" departLane="random" departSpeed="10" laneChangeMode="5242898" />
    <vehicle id="vehicle_281_rand" type="standard_car" route="N_to_S" depart="84" departLane="random" departSpeed="10" laneChangeMode="5242898" />
    <vehicle id="vehicle_533_rand" type="standard_car" route="N_to_S" depart="84" departLane="random" departSpeed="10" laneChangeMode="5242898" />
    <vehicle id="vehicle_339_rand" type="standard_car" route="E_to_S" depart="85" departLane="random" departSpeed="10" laneChangeMode="5242898" />
    <vehicle id="vehicle_458_rand" type="standard_car" route="E_to_W" depart="88" departLane="random" departSpeed="10" laneChangeMode="5242898" />
    <vehicle id="vehicle_182_rand" type="standard_car" route="S_to_W" depart="95" departLane="random" departSpeed="10" laneChangeMode="5242898" />
    <vehicle id="vehicle_264_rand" type="standard_car" route="N_to_W" depart="97" departLane="random" departSpeed="10" laneChangeMode="5242898" />
    <vehicle id="vehicle_115_rand" type="standard_car" route="E_to_W" depart="105" departLane="random" departSpeed="10" laneChangeMode="5242898" />
    <vehicle id="vehicle_334_rand" type="standard_car" route="S_to_N" depart="106" departLane="random" departSpeed="10" laneChangeMode="5242898" />
    <vehicle id="vehicle_209_rand" type="standard_car" route="W_to_E" depart="114" departLane="random" departSpeed="10" laneChangeMode="5242898" />
    <vehicle id="vehicle_212_rand" type="standard_car" route="N_to_S" depart="116" departLane="random" departSpeed="10" laneChangeMode="5242898" />
    <vehicle id="vehicle_481_rand" type="standard_car" route="E_to_W" depart="142" departLane="random" departSpeed="10" laneChangeMode="5242898" />
    <vehicle id="vehicle_155_rand" type="standard_car" route="S_to_N" depart="144" departLane="random" departSpeed="10" laneChangeMode="5242898" />
    <vehicle id="vehicle_81_rand" type="standard_car" route="E_to_W" depart="145" departLane="random" departSpeed="10" laneChangeMode="5242898" />
    <vehicle id="vehicle_96_rand" type="standard_car" route="N_to_S" depart="150" departLane="random" departSpeed="10" laneChangeMode="5242898" />
    <vehicle id="vehicle_149_rand" type="standard_car" route="W_to_E" depart="153" departLane="random" departSpeed="10" laneChangeMode="5242898" />
    <vehicle id="vehicle_20_rand" type="standard_car" route="N_to_W" depart="155" departLane="random" departSpeed="10" laneChangeMode="5242898" />
    <vehicle id="vehicle_441_rand" type="standard_car" route="S_to_W" depart="159" departLane="random" departSpeed="10" laneChangeMode="5242898" />
    <vehicle id="vehicle_484_rand" type="standard_car" route="N_to_E" depart="163" departLane="random" departSpeed="10" laneChangeMode="5242898" />
    <vehicle id="vehicle_269_rand" type="standard_car" route="W_to_N" depart="164" departLane="random" departSpeed="10" laneChangeMode="5242898" />
    <vehicle id="vehicle_425_rand" type="standard_car" route="S_to_W" depart="175" departLane="random" departSpeed="10" laneChangeMode="5242898" />
    <vehicle id="vehicle_260_rand" type="standard_car" route="N_to_S" depart="178" departLane="random" departSpeed="10" laneChangeMode="5242898" />
    <vehicle id="vehicle_179_rand" type="standard_car" route="S_to_N" depart="184" departLane="random" departSpeed="10" laneChangeMode="5242898" />
    <vehicle id="vehicle_227_rand" type="standard_car" route="E_to_N" depart="193" departLane="random" departSpeed="10" laneChangeMode="5242898" />
    <vehicle id="vehicle_76_gaussian" type="standard_car" route="N_to_W" depart="212" departLane="random" departSpeed="10" laneChangeMode="5242898" />
    <vehicle id="vehicle_118_rand" type="standard_car" route="E_to_S" depart="213" departLane="random" departSpeed="10" laneChangeMode="5242898" />
    <vehicle id="vehicle_191_rand" type="standard_car" route="E_to_W" depart="214" departLane="random" departSpeed="10" laneChangeMode="5242898" />
    <vehicle id="vehicle_127_rand" type="standard_car" route="E_to_W" depart="232" departLane="random" departSpeed="10" laneChangeMode="5242898" />
    <vehicle id="vehicle_270_rand" type="standard_car" route="S_to_N" depart="238" departLane="random" departSpeed="10" laneChangeMode="5242898" />
    <vehicle id="vehicle_277_gaussian" type="standard_car" route="N_to_S" depart="240" departLane="random" departSpeed="10" laneChangeMode="5242898" />
    <vehicle id="vehicle_23_rand" type="standard_car" route="S_to_N" depart="243" departLane="random" departSpeed="10" laneChangeMode="5242898" />
    <vehicle id="vehicle_211_rand" type="standard_car" route="N_to_E" depart="247" departLane="random" departSpeed="10" laneChangeMode="5242898" />
    <vehicle id="vehicle_471_rand" type="standard_car" route="S_to_W" depart="266" departLane="random" departSpeed="10" laneChangeMode="5242898" />
    <vehicle id="vehicle_398_gaussian" type="standard_car" route="N_to_S" depart="268" departLane="random" departSpeed="10" laneChangeMode="5242898" />
    <vehicle id="vehicle_138_rand" type="standard_car" route="N_to_S" depart="272" departLane="random" departSpeed="10" laneChangeMode="5242898" />
    <vehicle id="vehicle_185_gaussian" type="standard_car" route="N_to_S" depart="278" departLane="random" departSpeed="10" laneChangeMode="5242898" />
    <vehicle id="vehicle_401_rand" type="standard_car" route="S_to_N" depart="278" departLane="random" departSpeed="10" laneChangeMode="5242898" />
    <vehicle id="vehicle_433_rand" type="standard_car" route="W_to_E" depart="279" departLane="random" departSpeed="10" laneChangeMode="5242898" />
    <vehicle id="vehicle_327_gaussian" type="standard_car" route="N_to_S" depart="285" departLane="random" departSpeed="10" laneChangeMode="5242898" />
    <vehicle id="vehicle_463_rand" type="standard_car" route="W_to_E" depart="286" departLane="random" departSpeed="10" laneChangeMode="5242898" />
    <vehicle id="vehicle_303_gaussian" type="standard_car" route="N_to_S" depart="288" departLane="random" departSpeed="10" laneChangeMode="5242898" />
    <vehicle id="vehicle_240_gaussian" type="standard_car" route="N_to_S" depart="289" departLane="random" departSpeed="10" laneChangeMode="5242898" />
    <vehicle id="vehicle_164_rand" type="standard_car" route="W_to_E" depart="296" departLane="random" departSpeed="10" laneChangeMode="5242898" />
    <vehicle id="vehicle_308_rand" type="standard_car" route="E_to_W" depart="300" departLane="random" departSpeed="10" laneChangeMode="5242898" />
    <vehicle id="vehicle_285_gaussian" type="standard_car" route="N_to_E" depart="305" departLane="random" departSpeed="10" laneChangeMode="5242898" />
    <vehicle id="vehicle_190_gaussian" type="standard_car" route="N_to_S" depart="307" departLane="random" departSpeed="10" laneChangeMode="5242898" />
    <vehicle id="vehicle_130_gaussian" type="standard_car" route="N_to_S" depart="312" departLane="random" departSpeed="10" laneChangeMode="5242898" />
    <vehicle id="vehicle_109_rand" type="standard_car" route="W_to_E" depart="317" departLane="random" departSpeed="10" laneChangeMode="5242898" />
    <vehicle id="vehicle_123_rand" type="standard_car" route="E_to_W" depart="319" departLane="random" departSpeed="10" laneChangeMode="5242898" />
    <vehicle id="vehicle_290_gaussian" type="standard_car" route="N_to_S" depart="321" departLane="random" departSpeed="10" laneChangeMode="5242898" />
    <vehicle id="vehicle_165_gaussian" type="standard_car" route="N_to_W" depart="323" departLane="random" departSpeed="10" laneChangeMode="5242898" />
    <vehicle id="vehicle_279_gaussian" type="standard_car" route="N_to_S" depart="323" departLane="random" departSpeed="10" laneChangeMode="5242898" />
    <vehicle id="vehicle_89_rand" type="standard_car" route="S_to_N" depart="324" departLane="random" departSpeed="10" laneChangeMode="5242898" />
    <vehicle id="vehicle_304_rand" type="standard_car" route="W_to_E" depart="326" departLane="random" departSpeed="10" laneChangeMode="5242898" />
    <vehicle id="vehicle_189_gaussian" type="standard_car" route="N_to_S" depart="329" departLane="random" departSpeed="10" laneChangeMode="5242898" />
    <vehicle id="vehicle_61_gaussian" type="standard_car" route="N_to_S" depart="329" departLane="random" departSpeed="10" laneChangeMode="5242898" />
    <vehicle id="vehicle_86_gaussian" type="standard_car" route="N_to_S" depart="333" departLane="random" departSpeed="10" laneChangeMode="5242898" />
    <vehicle id="vehicle_585_rand" type="standard_car" route="N_to_S" depart="334" departLane="random" departSpeed="10" laneChangeMode="5242898" />
    <vehicle id="vehicle_341_gaussian" type="standard_car" route="N_to_S" depart="339" departLane="random" departSpeed="10" laneChangeMode="5242898" />
    <vehicle id="vehicle_345_gaussian" type="standard_car" route="N_to_S" depart="340" departLane="random" departSpeed="10" laneChangeMode="5242898" />
    <vehicle id="vehicle_368_gaussian" type="standard_car" route="N_to_S" depart="342" departLane="random" departSpeed="10" laneChangeMode="5242898" />
    <vehicle id="vehicle_247_gaussian" type="standard_car" route="N_to_W" depart="343" departLane="random" departSpeed="10" laneChangeMode="5242898" />
    <vehicle id="vehicle_356_gaussian" type="standard_car" route="N_to_S" depart="344" departLane="random" departSpeed="10" laneChangeMode="5242898" />
    <vehicle id="vehicle_221_gaussian" type="standard_car" route="N_to_W" depart="352" departLane="random" departSpeed="10" laneChangeMode="5242898" />
    <vehicle id="vehicle_333_gaussian" type="standard_car" route="N_to_S" depart="352" departLane="random" departSpeed="10" laneChangeMode="5242898" />
    <vehicle id="vehicle_104_gaussian" type="standard_car" route="N_to_S" depart="353" departLane="random" departSpeed="10" laneChangeMode="5242898" />
    <vehicle id="vehicle_302_gaussian" type="standard_car" route="N_to_S" depart="357" departLane="random" departSpeed="10" laneChangeMode="5242898" />
    <vehicle id="vehicle_226_rand" type="standard_car" route="W_to_E" depart="360" departLane="random" departSpeed="10" laneChangeMode="5242898" />
    <vehicle id="vehicle_314_gaussian" type="standard_car" route="N_to_S" depart="365" departLane="random" departSpeed="10" laneChangeMode="5242898" />
    <vehicle id="vehicle_560_rand" type="standard_car" route="E_to_S" depart="369" departLane="random" departSpeed="10" laneChangeMode="5242898" />
    <vehicle id="vehicle_235_gaussian" type="standard_car" route="N_to_W" depart="372" departLane="random" departSpeed="10" laneChangeMode="5242898" />
    <vehicle id="vehicle_147_rand" type="standard_car" route="S_to_N" depart="373" departLane="random" departSpeed="10" laneChangeMode="5242898" />
    <vehicle id="vehicle_62_gaussian" type="standard_car" route="N_to_E" depart="373" departLane="random" departSpeed="10" laneChangeMode="5242898" />
    <vehicle id="vehicle_109_gaussian" type="standard_car" route="N_to_E" depart="375" departLane="random" departSpeed="10" laneChangeMode="5242898" />
    <vehicle id="vehicle_146_gaussian" type="standard_car" route="N_to_S" depart="375" departLane="random" departSpeed="10" laneChangeMode="5242898" />
    <vehicle id="vehicle_370_gaussian" type="standard_car" route="N_to_S" depart="375" departLane="random" departSpeed="10" laneChangeMode="5242898" />
    <vehicle id="vehicle_203_rand" type="standard_car" route="S_to_N" depart="377" departLane="random" departSpeed="10" laneChangeMode="5242898" />
    <vehicle id="vehicle_132_rand" type="standard_car" route="S_to_W" depart="379" departLane="random" departSpeed="10" laneChangeMode="5242898" />
    <vehicle id="vehicle_220_rand" type="standard_car" route="W_to_N" depart="381" departLane="random" departSpeed="10" laneChangeMode="5242898" />
    <vehicle id="vehicle_2_gaussian" type="standard_car" route="N_to_S" depart="382" departLane="random" departSpeed="10" laneChangeMode="5242898" />
    <vehicle id="vehicle_278_gaussian" type="standard_car" route="N_to_S" depart="383" departLane="random" departSpeed="10" laneChangeMode="5242898" />
    <vehicle id="vehicle_499_rand" type="standard_car" route="N_to_S" depart="388" departLane="random" departSpeed="10" laneChangeMode="5242898" />
    <vehicle id="vehicle_50_gaussian" type="standard_car" route="N_to_S" depart="390" departLane="random" departSpeed="10" laneChangeMode="5242898" />
    <vehicle id="vehicle_365_gaussian" type="standard_car" route="N_to_S" depart="394" departLane="random" departSpeed="10" laneChangeMode="5242898" />
    <vehicle id="vehicle_69_gaussian" type="standard_car" route="N_to_S" depart="395" departLane="random" departSpeed="10" laneChangeMode="5242898" />
    <vehicle id="vehicle_28_gaussian" type="standard_car" route="N_to_S" depart="396" departLane="random" departSpeed="10" laneChangeMode="5242898" />
    <vehicle id="vehicle_387_gaussian" type="standard_car" route="N_to_S" depart="398" departLane="random" departSpeed="10" laneChangeMode="5242898" />
    <vehicle id="vehicle_328_gaussian" type="standard_car" route="N_to_S" depart="399" departLane="random" departSpeed="10" laneChangeMode="5242898" />
    <vehicle id="vehicle_96_gaussian" type="standard_car" route="N_to_S" depart="402" departLane="random" departSpeed="10" laneChangeMode="5242898" />
    <vehicle id="vehicle_121_gaussian" type="standard_car" route="N_to_S" depart="403" departLane="random" departSpeed="10" laneChangeMode="5242898" />
    <vehicle id="vehicle_371_gaussian" type="standard_car" route="N_to_E" depart="403" departLane="random" departSpeed="10" laneChangeMode="5242898" />
    <vehicle id="vehicle_276_rand" type="standard_car" route="N_to_S" depart="405" departLane="random" departSpeed="10" laneChangeMode="5242898" />
    <vehicle id="vehicle_179_gaussian" type="standard_car" route="N_to_E" depart="407" departLane="random" departSpeed="10" laneChangeMode="5242898" />
    <vehicle id="vehicle_160_gaussian" type="standard_car" route="N_to_S" depart="408" departLane="random" departSpeed="10" laneChangeMode="5242898" />
    <vehicle id="vehicle_63_gaussian" type="standard_car" route="N_to_S" depart="408" departLane="random" departSpeed="10" laneChangeMode="5242898" />
    <vehicle id="vehicle_105_rand" type="standard_car" route="E_to_W" depart="410" departLane="random" departSpeed="10" laneChangeMode="5242898" />
    <vehicle id="vehicle_199_gaussian" type="standard_car" route="N_to_S" depart="411" departLane="random" departSpeed="10" laneChangeMode="5242898" />
    <vehicle id="vehicle_60_rand" type="standard_car" route="W_to_E" depart="413" departLane="random" departSpeed="10" laneChangeMode="5242898" />
    <vehicle id="vehicle_399_gaussian" type="standard_car" route="N_to_W" depart="417" departLane="random" departSpeed="10" laneChangeMode="5242898" />
    <vehicle id="vehicle_523_rand" type="standard_car" route="W_to_N" depart="424" departLane="random" departSpeed="10" laneChangeMode="5242898" />
    <vehicle id="vehicle_556_rand" type="standard_car" route="E_to_S" depart="424" departLane="random" departSpeed="10" laneChangeMode="5242898" />
    <vehicle id="vehicle_29_gaussian" type="standard_car" route="N_to_S" depart="430" departLane="random" departSpeed="10" laneChangeMode="5242898" />
    <vehicle id="vehicle_459_rand" type="standard_car" route="W_to_E" depart="433" departLane="random" departSpeed="10" laneChangeMode="5242898" />
    <vehicle id="vehicle_41_gaussian" type="standard_car" route="N_to_S" depart="434" departLane="random" departSpeed="10" laneChangeMode="5242898" />
    <vehicle id="vehicle_118_gaussian" type="standard_car" route="N_to_S" depart="441" departLane="random" departSpeed="10" laneChangeMode="5242898" />
    <vehicle id="vehicle_101_gaussian" type="standard_car" route="N_to_E" depart="448" departLane="random" departSpeed="10" laneChangeMode="5242898" />
    <vehicle id="vehicle_310_rand" type="standard_car" route="S_to_E" depart="449" departLane="random" departSpeed="10" laneChangeMode="5242898" />
    <vehicle id="vehicle_264_gaussian" type="standard_car" route="N_to_S" depart="453" departLane="random" departSpeed="10" laneChangeMode="5242898" />
    <vehicle id="vehicle_326_gaussian" type="standard_car" route="N_to_S" depart="454" departLane="random" departSpeed="10" laneChangeMode="5242898" />
    <vehicle id="vehicle_148_gaussian" type="standard_car" route="N_to_W" depart="455" departLane="random" departSpeed="10" laneChangeMode="5242898" />
    <vehicle id="vehicle_206_gaussian" type="standard_car" route="N_to_S" depart="455" departLane="random" departSpeed="10" laneChangeMode="5242898" />
    <vehicle id="vehicle_27_rand" type="standard_car" route="N_to_S" depart="461" departLane="random" departSpeed="10" laneChangeMode="5242898" />
    <vehicle id="vehicle_298_gaussian" type="standard_car" route="N_to_S" depart="462" departLane="random" departSpeed="10" laneChangeMode="5242898" />
    <vehicle id="vehicle_305_rand" type="standard_car" route="N_to_S" depart="463" departLane="random" departSpeed="10" laneChangeMode="5242898" />
    <vehicle id="vehicle_155_gaussian" type="standard_car" route="N_to_S" depart="467" departLane="random" departSpeed="10" laneChangeMode="5242898" />
    <vehicle id="vehicle_25_gaussian" type="standard_car" route="N_to_S" depart="467" departLane="random" departSpeed="10" laneChangeMode="5242898" />
    <vehicle id="vehicle_550_rand" type="standard_car" route="S_to_N" depart="467" departLane="random" departSpeed="10" laneChangeMode="5242898" />
    <vehicle id="vehicle_78_gaussian" type="standard_car" route="N_to_W" depart="468" departLane="random" departSpeed="10" laneChangeMode="5242898" />
    <vehicle id="vehicle_348_gaussian" type="standard_car" route="N_to_S" depart="471" departLane="random" departSpeed="10" laneChangeMode="5242898" />
    <vehicle id="vehicle_336_gaussian" type="standard_car" route="N_to_S" depart="472" departLane="random" departSpeed="10" laneChangeMode="5242898" />
    <vehicle id="vehicle_290_rand" type="standard_car" route="N_to_S" depart="479" departLane="random" departSpeed="10" laneChangeMode="5242898" />
    <vehicle id="vehicle_297_gaussian" type="standard_car" route="N_to_S" depart="484" departLane="random" departSpeed="10" laneChangeMode="5242898" />
    <vehicle id="vehicle_351_gaussian" type="standard_car" route="N_to_S" depart="484" departLane="random" departSpeed="10" laneChangeMode="5242898" />
    <vehicle id="vehicle_500_rand" type="standard_car" route="W_to_E" depart="488" departLane="random" departSpeed="10" laneChangeMode="5242898" />
    <vehicle id="vehicle_37_rand" type="standard_car" route="E_to_N" depart="489" departLane="random" departSpeed="10" laneChangeMode="5242898" />
    <vehicle id="vehicle_423_rand" type="standard_car" route="W_to_E" depart="491" departLane="random" departSpeed="10" laneChangeMode="5242898" />
    <vehicle id="vehicle_196_gaussian" type="standard_car" route="S_to_N" depart="493" departLane="random" departSpeed="10" laneChangeMode="5242898" />
    <vehicle id="vehicle_344_gaussian" type="standard_car" route="N_to_S" depart="495" departLane="random" departSpeed="10" laneChangeMode="5242898" />
    <vehicle id="vehicle_406_rand" type="standard_car" route="S_to_N" depart="496" departLane="random" departSpeed="10" laneChangeMode="5242898" />
    <vehicle id="vehicle_156_gaussian" type="standard_car" route="N_to_S" depart="500" departLane="random" departSpeed="10" laneChangeMode="5242898" />
    <vehicle id="vehicle_47_gaussian" type="standard_car" route="N_to_S" depart="503" departLane="random" departSpeed="10" laneChangeMode="5242898" />
    <vehicle id="vehicle_94_rand" type="standard_car" route="N_to_S" depart="505" departLane="random" departSpeed="10" laneChangeMode="5242898" />
    <vehicle id="vehicle_216_gaussian" type="standard_car" route="N_to_S" depart="506" departLane="random" departSpeed="10" laneChangeMode="5242898" />
    <vehicle id="vehicle_301_gaussian" type="standard_car" route="S_to_N" depart="509" departLane="random" departSpeed="10" laneChangeMode="5242898" />
    <vehicle id="vehicle_278_rand" type="standard_car" route="N_to_S" depart="511" departLane="random" departSpeed="10" laneChangeMode="5242898" />
    <vehicle id="vehicle_13_rand" type="standard_car" route="N_to_E" depart="515" departLane="random" departSpeed="10" laneChangeMode="5242898" />
    <vehicle id="vehicle_169_gaussian" type="standard_car" route="N_to_S" depart="519" departLane="random" departSpeed="10" laneChangeMode="5242898" />
    <vehicle id="vehicle_174_gaussian" type="standard_car" route="N_to_S" depart="520" departLane="random" departSpeed="10" laneChangeMode="5242898" />
    <vehicle id="vehicle_48_gaussian" type="standard_car" route="N_to_S" depart="521" departLane="random" departSpeed="10" laneChangeMode="5242898" />
    <vehicle id="vehicle_97_rand" type="standard_car" route="W_to_S" depart="524" departLane="random" departSpeed="10" laneChangeMode="5242898" />
    <vehicle id="vehicle_119_gaussian" type="standard_car" route="S_to_N" depart="527" departLane="random" departSpeed="10" laneChangeMode="5242898" />
    <vehicle id="vehicle_202_gaussian" type="standard_car" route="N_to_S" depart="529" departLane="random" departSpeed="10" laneChangeMode="5242898" />
    <vehicle id="vehicle_381_gaussian" type="standard_car" route="S_to_N" depart="531" departLane="random" departSpeed="10" laneChangeMode="5242898" />
    <vehicle id="vehicle_31_rand" type="standard_car" route="S_to_N" depart="532" departLane="random" departSpeed="10" laneChangeMode="5242898" />
    <vehicle id="vehicle_391_gaussian" type="standard_car" route="N_to_S" depart="532" departLane="random" departSpeed="10" laneChangeMode="5242898" />
    <vehicle id="vehicle_120_gaussian" type="standard_car" route="N_to_S" depart="536" departLane="random" departSpeed="10" laneChangeMode="5242898" />
    <vehicle id="vehicle_394_gaussian" type="standard_car" route="N_to_S" depart="539" departLane="random" departSpeed="10" laneChangeMode="5242898" />
    <vehicle id="vehicle_324_gaussian" type="standard_car" route="S_to_N" depart="541" departLane="random" departSpeed="10" laneChangeMode="5242898" />
    <vehicle id="vehicle_288_gaussian" type="standard_car" route="N_to_W" depart="544" departLane="random" departSpeed="10" laneChangeMode="5242898" />
    <vehicle id="vehicle_253_rand" type="standard_car" route="N_to_S" depart="548" departLane="random" departSpeed="10" laneChangeMode="5242898" />
    <vehicle id="vehicle_266_gaussian" type="standard_car" route="S_to_N" depart="548" departLane="random" departSpeed="10" laneChangeMode="5242898" />
    <vehicle id="vehicle_13_gaussian" type="standard_car" route="N_to_S" depart="555" departLane="random" departSpeed="10" laneChangeMode="5242898" />
    <vehicle id="vehicle_162_gaussian" type="standard_car" route="N_to_W" depart="555" departLane="random" departSpeed="10" laneChangeMode="5242898" />
    <vehicle id="vehicle_218_gaussian" type="standard_car" route="S_to_N" depart="555" departLane="random" departSpeed="10" laneChangeMode="5242898" />
    <vehicle id="vehicle_107_gaussian" type="standard_car" route="N_to_E" depart="559" departLane="random" departSpeed="10" laneChangeMode="5242898" />
    <vehicle id="vehicle_369_gaussian" type="standard_car" route="S_to_N" depart="559" departLane="random" departSpeed="10" laneChangeMode="5242898" />
    <vehicle id="vehicle_273_gaussian" type="standard_car" route="S_to_N" depart="560" departLane="random" departSpeed="10" laneChangeMode="5242898" />
    <vehicle id="vehicle_4_gaussian" type="standard_car" route="S_to_N" depart="560" departLane="random" departSpeed="10" laneChangeMode="5242898" />
    <vehicle id="vehicle_237_gaussian" type="standard_car" route="S_to_N" depart="561" departLane="random" departSpeed="10" laneChangeMode="5242898" />
    <vehicle id="vehicle_112_rand" type="standard_car" route="S_to_N" depart="565" departLane="random" departSpeed="10" laneChangeMode="5242898" />
    <vehicle id="vehicle_0_gaussian" type="standard_car" route="S_to_N" depart="570" departLane="random" departSpeed="10" laneChangeMode="5242898" />
    <vehicle id="vehicle_339_gaussian" type="standard_car" route="S_to_N" depart="577" departLane="random" departSpeed="10" laneChangeMode="5242898" />
    <vehicle id="vehicle_223_gaussian" type="standard_car" route="S_to_N" depart="582" departLane="random" departSpeed="10" laneChangeMode="5242898" />
    <vehicle id="vehicle_1_gaussian" type="standard_car" route="N_to_S" depart="586" departLane="random" departSpeed="10" laneChangeMode="5242898" />
    <vehicle id="vehicle_265_gaussian" type="standard_car" route="S_to_N" depart="591" departLane="random" departSpeed="10" laneChangeMode="5242898" />
    <vehicle id="vehicle_132_gaussian" type="standard_car" route="S_to_N" depart="592" departLane="random" departSpeed="10" laneChangeMode="5242898" />
    <vehicle id="vehicle_403_rand" type="standard_car" route="W_to_E" depart="594" departLane="random" departSpeed="10" laneChangeMode="5242898" />
    <vehicle id="vehicle_219_gaussian" type="standard_car" route="N_to_S" depart="597" departLane="random" departSpeed="10" laneChangeMode="5242898" />
    <vehicle id="vehicle_248_gaussian" type="standard_car" route="N_to_S" depart="604" departLane="random" departSpeed="10" laneChangeMode="5242898" />
    <vehicle id="vehicle_115_gaussian" type="standard_car" route="S_to_N" depart="605" departLane="random" departSpeed="10" laneChangeMode="5242898" />
    <vehicle id="vehicle_197_gaussian" type="standard_car" route="S_to_E" depart="606" departLane="random" departSpeed="10" laneChangeMode="5242898" />
    <vehicle id="vehicle_562_rand" type="standard_car" route="N_to_E" depart="606" departLane="random" departSpeed="10" laneChangeMode="5242898" />
    <vehicle id="vehicle_114_gaussian" type="standard_car" route="S_to_N" depart="614" departLane="random" departSpeed="10" laneChangeMode="5242898" />
    <vehicle id="vehicle_274_gaussian" type="standard_car" route="S_to_N" depart="614" departLane="random" departSpeed="10" laneChangeMode="5242898" />
    <vehicle id="vehicle_319_gaussian" type="standard_car" route="S_to_N" depart="614" departLane="random" departSpeed="10" laneChangeMode="5242898" />
    <vehicle id="vehicle_384_rand" type="standard_car" route="E_to_W" depart="617" departLane="random" departSpeed="10" laneChangeMode="5242898" />
    <vehicle id="vehicle_546_rand" type="standard_car" route="S_to_N" depart="619" departLane="random" departSpeed="10" laneChangeMode="5242898" />
    <vehicle id="vehicle_66_gaussian" type="standard_car" route="S_to_N" depart="623" departLane="random" departSpeed="10" laneChangeMode="5242898" />
    <vehicle id="vehicle_183_gaussian" type="standard_car" route="S_to_N" depart="627" departLane="random" departSpeed="10" laneChangeMode="5242898" />
    <vehicle id="vehicle_380_rand" type="standard_car" route="S_to_N" depart="633" departLane="random" departSpeed="10" laneChangeMode="5242898" />
    <vehicle id="vehicle_352_gaussian" type="standard_car" route="S_to_N" depart="634" departLane="random" departSpeed="10" laneChangeMode="5242898" />
    <vehicle id="vehicle_99_rand" type="standard_car" route="S_to_N" depart="637" departLane="random" departSpeed="10" laneChangeMode="5242898" />