                
<routes>
            <vType accel="1.0" decel="4.5" id="standard_car" length="5.0" minGap="2.5" maxSpeed="25" sigma="0.5" laneChangeMode="5242898"/>
            
            <!-- route definition (the car route) -->

            <route id="W_to_N" edges="W_in N_out"/>
            <route id="W_to_E" edges="W_in E_out"/>
            <route id="W_to_S" edges="W_in S_out"/>
            <route id="N_to_W" edges="N_in W_out"/>
            <route id="N_to_E" edges="N_in E_out"/>
            <route id="N_to_S" edges="N_in S_out"/>
            <route id="E_to_W" edges="E_in W_out"/>
            <route id="E_to_N" edges="E_in N_out"/>
            <route id="E_to_S" edges="E_in S_out"/>
            <route id="S_to_W" edges="S_in W_out"/>
            <route id="S_to_N" edges="S_in N_out"/>
            <route id="S_to_E" edges="S_in E_out"/>
    <vehicle id="vehicle_246_rand" type="standard_car" route="N_to_S" depart="1" departLane="random" departSpeed="10" laneChangeMode="5242898" />
    <vehicle id="vehicle_183_rand" type="standard_car" route="S_to_N" depart="10" departLane="random" departSpeed="10" laneChangeMode="5242898" />
    <vehicle id="vehicle_145_rand" type="standard_car" route="W_to_E" depart="47" departLane="random" departSpeed="10" laneChangeMode="5242898" />
    <vehicle id="vehicle_174_rand" type="standard_car" route="E_to_N" depart="48" departLane="random" departSpeed="10" laneChangeMode="5242898" />
    <vehicle id="vehicle_283_rand" type="standard_car" route="E_to_W" depart="48" departLane="random" departSpeed="10" laneChangeMode="5242898" />
    <vehicle id="vehicle_571_rand" type="standard_car" route="W_to_E" depart="54" departLane="random" departSpeed="10" laneChangeMode="5242898" />
    <vehicle id="vehicle_26_rand" type="standard_car" route="N_to_S" depart="64" departLane="random" departSpeed="10" laneChangeMode="5242898" />
    <vehicle id="vehicle_178_rand" type="standard_car" route="S_to_N" depart="68" departLane="random" departSpeed="10" laneChangeMode="5242898" />
    <vehicle id="vehicle_315_rand" type="standard_car" route="S_to_N" depart="72" departLane="random" departSpeed="10" laneChangeMode="5242898" />
    <vehicle id="vehicle_400_rand" type="standard_car" route="E_to_N" depart="72" departLane="random" departSpeed="10" laneChangeMode="5242898" />
    <vehicle id="vehicle_586_rand" type="standard_car" route="E_to_W" depart="73" departLane="random" departSpeed="10" laneChangeMode="5242898" />
    <vehicle id="vehicle_327_rand" type="standard_car" route="S_to_W" depart="75" departLane="random" departSpeed="10" laneChangeMode="5242898" />
    <vehicle id="vehicle_206_rand" type="standard_car" route="N_to_S" depart="80" departLane="random" departSpeed="10" laneChangeMode="5242898" />
    <vehicle id="vehicle_77_rand" type="standard_car" route="W_to_E" depart="83" departLane="random" departSpeed="10" laneChangeMode="5242898" />
    <vehicle id="vehicle_381_rand" type="standard_car" route="W_to_E" depart="88" departLane="random" departSpeed="10" laneChangeMode="5242898" />
    <vehicle id="vehicle_303_rand" type="standard_car" route="W_to_E" depart="104" departLane="random" departSpeed="10" laneChangeMode="5242898" />
    <vehicle id="vehicle_53_rand" type="standard_car" route="N_to_S" depart="107" departLane="random" departSpeed="10" laneChangeMode="5242898" />
    <vehicle id="vehicle_332_rand" type="standard_car" route="W_to_E" depart="118" departLane="random" departSpeed="10" laneChangeMode="5242898" />
    <vehicle id="vehicle_544_rand" type="standard_car" route="N_to_S" depart="126" departLane="random" departSpeed="10" laneChangeMode="5242898" />
    <vehicle id="vehicle_296_rand" type="standard_car" route="N_to_S" depart="127" departLane="random" departSpeed="10" laneChangeMode="5242898" />
    <vehicle id="vehicle_285_rand" type="standard_car" route="N_to_E" depart="136" departLane="random" departSpeed="10" laneChangeMode="5242898" />
    <vehicle id="vehicle_438_rand" type="standard_car" route="W_to_E" depart="147" departLane="random" departSpeed="10" laneChangeMode="5242898" />
    <vehicle id="vehicle_295_rand" type="standard_car" route="N_to_S" depart="150" departLane="random" departSpeed="10" laneChangeMode="5242898" />
    <vehicle id="vehicle_111_rand" type="standard_car" route="W_to_N" depart="162" departLane="random" departSpeed="10" laneChangeMode="5242898" />
    <vehicle id="vehicle_515_rand" type="standard_car" route="E_to_S" depart="164" departLane="random" departSpeed="10" laneChangeMode="5242898" />
    <vehicle id="vehicle_17_rand" type="standard_car" route="E_to_W" depart="167" departLane="random" departSpeed="10" laneChangeMode="5242898" />
    <vehicle id="vehicle_347_rand" type="standard_car" route="N_to_S" depart="171" departLane="random" departSpeed="10" laneChangeMode="5242898" />
    <vehicle id="vehicle_209_rand" type="standard_car" route="E_to_S" depart="187" departLane="random" departSpeed="10" laneChangeMode="5242898" />
    <vehicle id="vehicle_122_rand" type="standard_car" route="E_to_W" depart="188" departLane="random" departSpeed="10" laneChangeMode="5242898" />
    <vehicle id="vehicle_526_rand" type="standard_car" route="N_to_W" depart="192" departLane="random" departSpeed="10" laneChangeMode="5242898" />
    <vehicle id="vehicle_123_rand" type="standard_car" route="S_to_N" depart="202" departLane="random" departSpeed="10" laneChangeMode="5242898" />
    <vehicle id="vehicle_533_rand" type="standard_car" route="S_to_N" depart="202" departLane="random" departSpeed="10" laneChangeMode="5242898" />
    <vehicle id="vehicle_106_rand" type="standard_car" route="W_to_S" depart="203" departLane="random" departSpeed="10" laneChangeMode="5242898" />
    <vehicle id="vehicle_268_rand" type="standard_car" route="E_to_W" depart="208" departLane="random" departSpeed="10" laneChangeMode="5242898" />
    <vehicle id="vehicle_432_rand" type="standard_car" route="E_to_S" depart="211" departLane="random" departSpeed="10" laneChangeMode="5242898" />
    <vehicle id="vehicle_133_rand" type="standard_car" route="N_to_S" depart="212" departLane="random" departSpeed="10" laneChangeMode="5242898" />
    <vehicle id="vehicle_333_rand" type="standard_car" route="N_to_S" depart="220" departLane="random" departSpeed="10" laneChangeMode="5242898" />
    <vehicle id="vehicle_497_rand" type="standard_car" route="W_to_E" depart="221" departLane="random" departSpeed="10" laneChangeMode="5242898" />
    <vehicle id="vehicle_322_rand" type="standard_car" route="N_to_S" depart="222" departLane="random" departSpeed="10" laneChangeMode="5242898" />
    <vehicle id="vehicle_141_rand" type="standard_car" route="S_to_N" depart="235" departLane="random" departSpeed="10" laneChangeMode="5242898" />
    <vehicle id="vehicle_132_rand" type="standard_car" route="E_to_W" depart="237" departLane="random" departSpeed="10" laneChangeMode="5242898" />
    <vehicle id="vehicle_392_rand" type="standard_car" route="S_to_N" depart="253" departLane="random" departSpeed="10" laneChangeMode="5242898" />
    <vehicle id="vehicle_220_rand" type="standard_car" route="E_to_W" depart="256" departLane="random" departSpeed="10" laneChangeMode="5242898" />
    <vehicle id="vehicle_348_rand" type="standard_car" route="W_to_N" depart="261" departLane="random" departSpeed="10" laneChangeMode="5242898" />
    <vehicle id="vehicle_399_rand" type="standard_car" route="N_to_S" depart="263" departLane="random" departSpeed="10" laneChangeMode="5242898" />
    <vehicle id="vehicle_108_rand" type="standard_car" route="S_to_E" depart="265" departLane="random" departSpeed="10" laneChangeMode="5242898" />
    <vehicle id="vehicle_260_rand" type="standard_car" route="E_to_W" depart="270" departLane="random" departSpeed="10" laneChangeMode="5242898" />
    <vehicle id="vehicle_253_rand" type="standard_car" route="N_to_S" depart="272" departLane="random" departSpeed="10" laneChangeMode="5242898" />
    <vehicle id="vehicle_188_rand" type="standard_car" route="E_to_W" depart="275" departLane="random" departSpeed="10" laneChangeMode="5242898" />
    <vehicle id="vehicle_390_rand" type="standard_car" route="W_to_E" depart="279" departLane="random" departSpeed="10" laneChangeMode="5242898" />
    <vehicle id="vehicle_410_rand" type="standard_car" route="W_to_S" depart="280" departLane="random" departSpeed="10" laneChangeMode="5242898" />
    <vehicle id="vehicle_266_rand" type="standard_car" route="W_to_E" depart="284" departLane="random" departSpeed="10" laneChangeMode="5242898" />
    <vehicle id="vehicle_136_rand" type="standard_car" route="S_to_W" depart="298" departLane="random" departSpeed="10" laneChangeMode="5242898" />
    <vehicle id="vehicle_98_rand" type="standard_car" route="W_to_E" depart="301" departLane="random" departSpeed="10" laneChangeMode="5242898" />
    <vehicle id="vehicle_236_rand" type="standard_car" route="E_to_W" depart="315" departLane="random" departSpeed="10" laneChangeMode="5242898" />
    <vehicle id="vehicle_235_rand" type="standard_car" route="W_to_E" depart="328" departLane="random" departSpeed="10" laneChangeMode="5242898" />
    <vehicle id="vehicle_247_rand" type="standard_car" route="W_to_E" depart="332" departLane="random" departSpeed="10" laneChangeMode="5242898" />
    <vehicle id="vehicle_58_rand" type="standard_car" route="E_to_S" depart="332" departLane="random" departSpeed="10" laneChangeMode="5242898" />
    <vehicle id="vehicle_276_rand" type="standard_car" route="S_to_W" depart="347" departLane="random" departSpeed="10" laneChangeMode="5242898" />
    <vehicle id="vehicle_165_rand" type="standard_car" route="N_to_S" depart="348" departLane="random" departSpeed="10" laneChangeMode="5242898" />
    <vehicle id="vehicle_453_rand" type="standard_car" route="W_to_N" depart="350" departLane="random" departSpeed="10" laneChangeMode="5242898" />
    <vehicle id="vehicle_498_rand" type="standard_car" route="N_to_E" depart="351" departLane="random" departSpeed="10" laneChangeMode="5242898" />
    <vehicle id="vehicle_562_rand" type="standard_car" route="N_to_S" depart="376" departLane="random" departSpeed="10" laneChangeMode="5242898" />
    <vehicle id="vehicle_342_rand" type="standard_car" route="E_to_S" depart="377" departLane="random" departSpeed="10" laneChangeMode="5242898" />
    <vehicle id="vehicle_502_rand" type="standard_car" route="W_to_E" depart="378" departLane="random" departSpeed="10" laneChangeMode="5242898" />
    <vehicle id="vehicle_52_rand" type="standard_car" route="W_to_E" depart="388" departLane="random" departSpeed="10" laneChangeMode="5242898" />
    <vehicle id="vehicle_573_rand" type="standard_car" route="N_to_S" depart="393" departLane="random" departSpeed="10" laneChangeMode="5242898" />
    <vehicle id="vehicle_354_rand" type="standard_car" route="S_to_N" depart="396" departLane="random" departSpeed="10" laneChangeMode="5242898" />
    <vehicle id="vehicle_301_rand" type="standard_car" route="W_to_E" depart="400" departLane="random" departSpeed="10" laneChangeMode="5242898" />
    <vehicle id="vehicle_63_gaussian" type="standard_car" route="N_to_E" depart="403" departLane="random" departSpeed="10" laneChangeMode="5242898" />
    <vehicle id="vehicle_161_gaussian" type="standard_car" route="N_to_E" depart="404" departLane="random" departSpeed="10" laneChangeMode="5242898" />
    <vehicle id="vehicle_282_rand" type="standard_car" route="W_to_E" depart="405" departLane="random" departSpeed="10" laneChangeMode="5242898" />
    <vehicle id="vehicle_377_rand" type="standard_car" route="E_to_N" depart="408" departLane="random" departSpeed="10" laneChangeMode="5242898" />
    <vehicle id="vehicle_18_rand" type="standard_car" route="E_to_W" depart="410" departLane="random" departSpeed="10" laneChangeMode="5242898" />
    <vehicle id="vehicle_425_rand" type="standard_car" route="S_to_N" depart="410" departLane="random" departSpeed="10" laneChangeMode="5242898" />
    <vehicle id="vehicle_367_gaussian" type="standard_car" route="N_to_S" depart="412" departLane="random" departSpeed="10" laneChangeMode="5242898" />
    <vehicle id="vehicle_2_rand" type="standard_car" route="S_to_W" depart="417" departLane="random" departSpeed="10" laneChangeMode="5242898" />
    <vehicle id="vehicle_582_rand" type="standard_car" route="N_to_W" depart="422" departLane="random" departSpeed="10" laneChangeMode="5242898" />
    <vehicle id="vehicle_126_rand" type="standard_car" route="W_to_E" depart="423" departLane="random" departSpeed="10" laneChangeMode="5242898" />
    <vehicle id="vehicle_298_gaussian" type="standard_car" route="N_to_E" depart="423" departLane="random" departSpeed="10" laneChangeMode="5242898" />
    <vehicle id="vehicle_347_gaussian" type="standard_car" route="N_to_W" depart="428" departLane="random" departSpeed="10" laneChangeMode="5242898" />
    <vehicle id="vehicle_187_gaussian" type="standard_car" route="N_to_S" depart="437" departLane="random" departSpeed="10" laneChangeMode="5242898" />
    <vehicle id="vehicle_10_rand" type="standard_car" route="E_to_W" depart="439" departLane="random" departSpeed="10" laneChangeMode="5242898" />
    <vehicle id="vehicle_11_gaussian" type="standard_car" route="N_to_S" depart="440" departLane="random" departSpeed="10" laneChangeMode="5242898" />
    <vehicle id="vehicle_363_gaussian" type="standard_car" route="N_to_S" depart="442" departLane="random" departSpeed="10" laneChangeMode="5242898" />
    <vehicle id="vehicle_325_rand" type="standard_car" route="S_to_W" depart="443" departLane="random" departSpeed="10" laneChangeMode="5242898" />
    <vehicle id="vehicle_56_gaussian" type="standard_car" route="N_to_S" depart="443" departLane="random" departSpeed="10" laneChangeMode="5242898" />
    <vehicle id="vehicle_132_gaussian" type="standard_car" route="N_to_S" depart="444" departLane="random" departSpeed="10" laneChangeMode="5242898" />
    <vehicle id="vehicle_92_gaussian" type="standard_car" route="N_to_E" depart="445" departLane="random" departSpeed="10" laneChangeMode="5242898" />
    <vehicle id="vehicle_224_rand" type="standard_car" route="E_to_W" depart="451" departLane="random" departSpeed="10" laneChangeMode="5242898" />
    <vehicle id="vehicle_4_gaussian" type="standard_car" route="W_to_E" depart="455" departLane="random" departSpeed="10" laneChangeMode="5242898" />
    <vehicle id="vehicle_124_rand" type="standard_car" route="S_to_W" depart="457" departLane="random" departSpeed="10" laneChangeMode="5242898" />
    <vehicle id="vehicle_166_gaussian" type="standard_car" route="N_to_W" depart="459" departLane="random" departSpeed="10" laneChangeMode="5242898" />
    <vehicle id="vehicle_28_rand" type="standard_car" route="S_to_N" depart="462" departLane="random" departSpeed="10" laneChangeMode="5242898" />
    <vehicle id="vehicle_151_gaussian" type="standard_car" route="N_to_S" depart="466" departLane="random" departSpeed="10" laneChangeMode="5242898" />
    <vehicle id="vehicle_240_gaussian" type="standard_car" route="N_to_S" depart="470" departLane="random" departSpeed="10" laneChangeMode="5242898" />
    <vehicle id="vehicle_376_gaussian" type="standard_car" route="N_to_S" depart="470" departLane="random" departSpeed="10" laneChangeMode="5242898" />
    <vehicle id="vehicle_39_gaussian" type="standard_car" route="N_to_S" depart="470" departLane="random" departSpeed="10" laneChangeMode="5242898" />
    <vehicle id="vehicle_263_gaussian" type="standard_car" route="N_to_S" depart="476" departLane="random" departSpeed="10" laneChangeMode="5242898" />
    <vehicle id="vehicle_302_gaussian" type="standard_car" route="N_to_S" depart="476" departLane="random" departSpeed="10" laneChangeMode="5242898" />
    <vehicle id="vehicle_83_rand" type="standard_car" route="W_to_E" depart="477" departLane="random" departSpeed="10" laneChangeMode="5242898" />
    <vehicle id="vehicle_89_rand" type="standard_car" route="S_to_N" depart="479" departLane="random" departSpeed="10" laneChangeMode="5242898" />
    <vehicle id="vehicle_247_gaussian" type="standard_car" route="N_to_S" depart="486" departLane="random" departSpeed="10" laneChangeMode="5242898" />
    <vehicle id="vehicle_246_gaussian" type="standard_car" route="N_to_S" depart="498" departLane="random" departSpeed="10" laneChangeMode="5242898" />
    <vehicle id="vehicle_238_gaussian" type="standard_car" route="N_to_S" depart="499" departLane="random" departSpeed="10" laneChangeMode="5242898" />
    <vehicle id="vehicle_49_rand" type="standard_car" route="S_to_E" depart="500" departLane="random" departSpeed="10" laneChangeMode="5242898" />
    <vehicle id="vehicle_94_gaussian" type="standard_car" route="N_to_W" depart="501" departLane="random" departSpeed="10" laneChangeMode="5242898" />
    <vehicle id="vehicle_294_gaussian" type="standard_car" route="N_to_S" depart="507" departLane="random" departSpeed="10" laneChangeMode="5242898" />
    <vehicle id="vehicle_276_gaussian" type="standard_car" route="N_to_S" depart="508" departLane="random" departSpeed="10" laneChangeMode="5242898" />
    <vehicle id="vehicle_194_rand" type="standard_car" route="E_to_W" depart="510" departLane="random" departSpeed="10" laneChangeMode="5242898" />
    <vehicle id="vehicle_420_rand" type="standard_car" route="W_to_E" depart="510" departLane="random" departSpeed="10" laneChangeMode="5242898" />
    <vehicle id="vehicle_95_gaussian" type="standard_car" route="N_to_S" depart="511" departLane="random" departSpeed="10" laneChangeMode="5242898" />
    <vehicle id="vehicle_189_gaussian" type="standard_car" route="W_to_E" depart="515" departLane="random" departSpeed="10" laneChangeMode="5242898" />
    <vehicle id="vehicle_29_gaussian" type="standard_car" route="W_to_E" depart="515" departLane="random" departSpeed="10" laneChangeMode="5242898" />
    <vehicle id="vehicle_360_gaussian" type="standard_car" route="N_to_S" depart="516" departLane="random" departSpeed="10" laneChangeMode="5242898" />
    <vehicle id="vehicle_336_gaussian" type="standard_car" route="N_to_W" depart="518" departLane="random" departSpeed="10" laneChangeMode="5242898" />
    <vehicle id="vehicle_464_rand" type="standard_car" route="W_to_E" depart="520" departLane="random" departSpeed="10" laneChangeMode="5242898" />
    <vehicle id="vehicle_65_rand" type="standard_car" route="W_to_E" depart="521" departLane="random" departSpeed="10" laneChangeMode="5242898" />
    <vehicle id="vehicle_145_gaussian" type="standard_car" route="W_to_E" depart="523" departLane="random" departSpeed="10" laneChangeMode="5242898" />
    <vehicle id="vehicle_241_gaussian" type="standard_car" route="N_to_S" depart="525" departLane="random" departSpeed="10" laneChangeMode="5242898" />
    <vehicle id="vehicle_220_gaussian" type="standard_car" route="N_to_S" depart="527" departLane="random" departSpeed="10" laneChangeMode="5242898" />
    <vehicle id="vehicle_52_gaussian" type="standard_car" route="N_to_W" depart="529" departLane="random" departSpeed="10" laneChangeMode="5242898" />
    <vehicle id="vehicle_384_gaussian" type="standard_car" route="N_to_S" depart="534" departLane="random" departSpeed="10" laneChangeMode="5242898" />
    <vehicle id="vehicle_60_gaussian" type="standard_car" route="N_to_S" depart="536" departLane="random" departSpeed="10" laneChangeMode="5242898" />
    <vehicle id="vehicle_250_gaussian" type="standard_car" route="W_to_N" depart="537" departLane="random" departSpeed="10" laneChangeMode="5242898" />
    <vehicle id="vehicle_293_gaussian" type="standard_car" route="N_to_S" depart="539" departLane="random" departSpeed="10" laneChangeMode="5242898" />
    <vehicle id="vehicle_35_gaussian" type="standard_car" route="N_to_S" depart="540" departLane="random" departSpeed="10" laneChangeMode="5242898" />
    <vehicle id="vehicle_90_gaussian" type="standard_car" route="N_to_S" depart="540" departLane="random" departSpeed="10" laneChangeMode="5242898" />
    <vehicle id="vehicle_255_rand" type="standard_car" route="N_to_S" depart="543" departLane="random" departSpeed="10" laneChangeMode="5242898" />
    <vehicle id="vehicle_31_gaussian" type="standard_car" route="N_to_S" depart="543" departLane="random" departSpeed="10" laneChangeMode="5242898" />
    <vehicle id="vehicle_201_gaussian" type="standard_car" route="N_to_S" depart="544" departLane="random" departSpeed="10" laneChangeMode="5242898" />
    <vehicle id="vehicle_483_rand" type="standard_car" route="S_to_E" depart="544" departLane="random" departSpeed="10" laneChangeMode="5242898" />
    <vehicle id="vehicle_285_gaussian" type="standard_car" route="N_to_W" depart="547" departLane="random" departSpeed="10" laneChangeMode="5242898" />
    <vehicle id="vehicle_390_gaussian" type="standard_car" route="N_to_S" depart="548" departLane="random" departSpeed="10" laneChangeMode="5242898" />
    <vehicle id="vehicle_243_gaussian" type="standard_car" route="N_to_S" depart="549" departLane="random" departSpeed="10" laneChangeMode="5242898" />
    <vehicle id="vehicle_371_gaussian" type="standard_car" route="N_to_E" depart="550" departLane="random" departSpeed="10" laneChangeMode="5242898" />
    <vehicle id="vehicle_144_rand" type="standard_car" route="E_to_W" depart="551" departLane="random" departSpeed="10" laneChangeMode="5242898" />
    <vehicle id="vehicle_55_gaussian" type="standard_car" route="W_to_E" depart="551" departLane="random" departSpeed="10" laneChangeMode="5242898" />
    <vehicle id="vehicle_74_gaussian" type="standard_car" route="N_to_S" depart="552" departLane="random" departSpeed="10" laneChangeMode="5242898" />
    <vehicle id="vehicle_84_gaussian" type="standard_car" route="N_to_S" depart="552" departLane="random" departSpeed="10" laneChangeMode="5242898" />
    <vehicle id="vehicle_98_gaussian" type="standard_car" route="W_to_E" depart="552" departLane="random" departSpeed="10" laneChangeMode="5242898" />
    <vehicle id="vehicle_253_gaussian" type="standard_car" route="W_to_N" depart="553" departLane="random" departSpeed="10" laneChangeMode="5242898" />
    <vehicle id="vehicle_352_rand" type="standard_car" route="N_to_S" depart="555" departLane="random" departSpeed="10" laneChangeMode="5242898" />
    <vehicle id="vehicle_195_gaussian" type="standard_car" route="N_to_W" depart="561" departLane="random" departSpeed="10" laneChangeMode="5242898" />
    <vehicle id="vehicle_38_rand" type="standard_car" route="S_to_N" depart="563" departLane="random" departSpeed="10" laneChangeMode="5242898" />
    <vehicle id="vehicle_43_gaussian" type="standard_car" route="N_to_S" depart="563" departLane="random" departSpeed="10" laneChangeMode="5242898" />
    <vehicle id="vehicle_274_rand" type="standard_car" route="W_to_E" depart="564" departLane="random" departSpeed="10" laneChangeMode="5242898" />
    <vehicle id="vehicle_158_gaussian" type="standard_car" route="W_to_N" depart="566" departLane="random" departSpeed="10" laneChangeMode="5242898" />
    <vehicle id="vehicle_260_gaussian" type="standard_car" route="N_to_S" depart="567" departLane="random" departSpeed="10" laneChangeMode="5242898" />
    <vehicle id="vehicle_379_gaussian" type="standard_car" route="N_to_E" depart="567" departLane="random" departSpeed="10" laneChangeMode="5242898" />
    <vehicle id="vehicle_198_gaussian" type="standard_car" route="W_to_E" depart="569" departLane="random" departSpeed="10" laneChangeMode="5242898" />
    <vehicle id="vehicle_338_gaussian" type="standard_car" route="N_to_S" depart="577" departLane="random" departSpeed="10" laneChangeMode="5242898" />
    <vehicle id="vehicle_79_gaussian" type="standard_car" route="W_to_E" depart="580" departLane="random" departSpeed="10" laneChangeMode="5242898" />
    <vehicle id="vehicle_93_gaussian" type="standard_car" route="N_to_S" depart="581" departLane="random" departSpeed="10" laneChangeMode="5242898" />
    <vehicle id="vehicle_330_gaussian" type="standard_car" route="W_to_E" depart="583" departLane="random" departSpeed="10" laneChangeMode="5242898" />
    <vehicle id="vehicle_224_gaussian" type="standard_car" route="N_to_S" depart="584" departLane="random" departSpeed="10" laneChangeMode="5242898" />
    <vehicle id="vehicle_128_gaussian" type="standard_car" route="W_to_N" depart="585" departLane="random" departSpeed="10" laneChangeMode="5242898" />
    <vehicle id="vehicle_30_rand" type="standard_car" route="W_to_E" depart="589" departLane="random" departSpeed="10" laneChangeMode="5242898" />
    <vehicle id="vehicle_322_gaussian" type="standard_car" route="N_to_S" depart="589" departLane="random" departSpeed="10" laneChangeMode="5242898" />
    <vehicle id="vehicle_480_rand" type="standard_car" route="W_to_E" depart="589" departLane="random" departSpeed="10" laneChangeMode="5242898" />
    <vehicle id="vehicle_318_gaussian" type="standard_car" route="N_to_W" depart="590" departLane="random" departSpeed="10" laneChangeMode="5242898" />
    <vehicle id="vehicle_144_gaussian" type="standard_car" route="N_to_W" depart="593" departLane="random" departSpeed="10" laneChangeMode="5242898" />
    <vehicle id="vehicle_230_gaussian" type="standard_car" route="W_to_E" depart="593" departLane="random" departSpeed="10" laneChangeMode="5242898" />
    <vehicle id="vehicle_577_rand" type="standard_car" route="E_to_W" depart="594" departLane="random" departSpeed="10" laneChangeMode="5242898" />
    <vehicle id="vehicle_69_gaussian" type="standard_car" route="W_to_E" depart="594" departLane="random" departSpeed="10" laneChangeMode="5242898" />
    <vehicle id="vehicle_131_rand" type="standard_car" route="S_to_N" depart="595" departLane="random" departSpeed="10" laneChangeMode="5242898" />
    <vehicle id="vehicle_238_rand" type="standard_car" route="W_to_E" depart="595" departLane="random" departSpeed="10" laneChangeMode="5242898" />
    <vehicle id="vehicle_81_gaussian" type="standard_car" route="N_to_S" depart="595" departLane="random" departSpeed="10" laneChangeMode="5242898" />
    <vehicle id="vehicle_188_gaussian" type="standard_car" route="N_to_S" depart="598" departLane="random" departSpeed="10" laneChangeMode="5242898" />
    <vehicle id="vehicle_214_gaussian" type="standard_car" route="N_to_S" depart="598" departLane="random" departSpeed="10" laneChangeMode="5242898" />
    <vehicle id="vehicle_550_rand" type="standard_car" route="E_to_W" depart="598" departLane="random" departSpeed="10" laneChangeMode="5242898" />
    <vehicle id="vehicle_244_gaussian" type="standard_car" route="W_to_E" depart="600" departLane="random" departSpeed="10" laneChangeMode="5242898" />
    <vehicle id="vehicle_245_gaussian" type="standard_car" route="N_to_S" depart="600" departLane="random" departSpeed="10" laneChangeMode="5242898" />
    <vehicle id="vehicle_451_rand" type="standard_car" route="N_to_S" depart="602" departLane="random" departSpeed="10" laneChangeMode="5242898" />
    <vehicle id="vehicle_103_gaussian" type="standard_car" route="W_to_S" depart="604" departLane="random" departSpeed="10" laneChangeMode="5242898" />
    <vehicle id="vehicle_357_rand" type="standard_car" route="S_to_W" depart="610" departLane="random" departSpeed="10" laneChangeMode="5242898" />
    <vehicle id="vehicle_206_gaussian" type="standard_car" route="N_to_S" depart="612" departLane="random" departSpeed="10" laneChangeMode="5242898" />
    <vehicle id="vehicle_179_gaussian" type="standard_car" route="N_to_S" depart="616" departLane="random" departSpeed="10" laneChangeMode="5242898" />
    <vehicle id="vehicle_142_gaussian" type="standard_car" route="W_to_E" depart="622" departLane="random" departSpeed="10" laneChangeMode="5242898" />
    <vehicle id="vehicle_225_rand" type="standard_car" route="W_to_E" depart="622" departLane="random" departSpeed="10" laneChangeMode="5242898" />
    <vehicle id="vehicle_120_gaussian" type="standard_car" route="N_to_W" depart="623" departLane="random" departSpeed="10" laneChangeMode="5242898" />
    <vehicle id="vehicle_439_rand" type="standard_car" route="W_to_E" depart="625" departLane="random" departSpeed="10" laneChangeMode="5242898" />
    <vehicle id="vehicle_48_rand" type="standard_car" route="E_to_S" depart="627" departLane="random" departSpeed="10" laneChangeMode="5242898" />
    <vehicle id="vehicle_274_gaussian" type="standard_car" route="N_to_E" depart="629" departLane="random" departSpeed="10" laneChangeMode="5242898" />
    <vehicle id="vehicle_53_gaussian" type="standard_car" route="N_to_S" depart="629" departLane="random" departSpeed="10" laneChangeMode="5242898" />
    <vehicle id="vehicle_134_gaussian" type="standard_car" route="W_to_S" depart="631" departLane="random" departSpeed="10" laneChangeMode="5242898" />
    <vehicle id="vehicle_216_gaussian" type="standard_car" route="W_to_E" depart="631" departLane="random" departSpeed="10" laneChangeMode="5242898" />
    <vehicle id="vehicle_394_gaussian" type="standard_car" route="N_to_E" depart="631" departLane="random" departSpeed="10" laneChangeMode="5242898" />
    <vehicle id="vehicle_282_gaussian" type="standard_car" route="W_to_E" depart="634" departLane="random" departSpeed="10" laneChangeMode="5242898" />
    <vehicle id="vehicle_107_gaussian" type="standard_car" route="W_to_N" depart="635" departLane="random" departSpeed="10" laneChangeMode="5242898" />
    <vehicle id="vehicle_357_gaussian" type="standard_car" route="W_to_E" depart="635" departLane="random" departSpeed="10" laneChangeMode="5242898" />
    <vehicle id="vehicle_57_gaussian" type="standard_car" route="W_to_N" depart="635" departLane="random" departSpeed="10" laneChangeMode="5242898" />
    <vehicle id="vehicle_12_rand" type="standard_car" route="N_to_S" depart="636" departLane="random" departSpeed="10" laneChangeMode="5242898" />