                
<routes>
            <vType accel="1.0" decel="4.5" id="standard_car" length="5.0" minGap="2.5" maxSpeed="25" sigma="0.5" laneChangeMode="5242898"/>
            
            <!-- route definition (the car route) -->

            <route id="W_to_N" edges="W_in N_out"/>
            <route id="W_to_E" edges="W_in E_out"/>
            <route id="W_to_S" edges="W_in S_out"/>
            <route id="N_to_W" edges="N_in W_out"/>
            <route id="N_to_E" edges="N_in E_out"/>
            <route id="N_to_S" edges="N_in S_out"/>
            <route id="E_to_W" edges="E_in W_out"/>
            <route id="E_to_N" edges="E_in N_out"/>
            <route id="E_to_S" edges="E_in S_out"/>
            <route id="S_to_W" edges="S_in W_out"/>
            <route id="S_to_N" edges="S_in N_out"/>
            <route id="S_to_E" edges="S_in E_out"/>
    <vehicle id="vehicle_58_rand" type="standard_car" route="S_to_N" depart="0" departLane="random" departSpeed="10" laneChangeMode="5242898" />
    <vehicle id="vehicle_455_rand" type="standard_car" route="N_to_S" depart="3" departLane="random" departSpeed="10" laneChangeMode="5242898" />
    <vehicle id="vehicle_388_rand" type="standard_car" route="E_to_W" depart="5" departLane="random" departSpeed="10" laneChangeMode="5242898" />
    <vehicle id="vehicle_19_rand" type="standard_car" route="N_to_S" depart="8" departLane="random" departSpeed="10" laneChangeMode="5242898" />
    <vehicle id="vehicle_140_rand" type="standard_car" route="E_to_W" depart="15" departLane="random" departSpeed="10" laneChangeMode="5242898" />
    <vehicle id="vehicle_555_rand" type="standard_car" route="S_to_N" depart="17" departLane="random" departSpeed="10" laneChangeMode="5242898" />
    <vehicle id="vehicle_68_rand" type="standard_car" route="W_to_E" depart="17" departLane="random" departSpeed="10" laneChangeMode="5242898" />
    <vehicle id="vehicle_574_rand" type="standard_car" route="W_to_E" depart="31" departLane="random" departSpeed="10" laneChangeMode="5242898" />
    <vehicle id="vehicle_456_rand" type="standard_car" route="E_to_W" depart="45" departLane="random" departSpeed="10" laneChangeMode="5242898" />
    <vehicle id="vehicle_31_rand" type="standard_car" route="N_to_S" depart="49" departLane="random" departSpeed="10" laneChangeMode="5242898" />
    <vehicle id="vehicle_182_rand" type="standard_car" route="N_to_S" depart="57" departLane="random" departSpeed="10" laneChangeMode="5242898" />
    <vehicle id="vehicle_120_rand" type="standard_car" route="N_to_W" depart="59" departLane="random" departSpeed="10" laneChangeMode="5242898" />
    <vehicle id="vehicle_268_rand" type="standard_car" route="E_to_W" depart="59" departLane="random" departSpeed="10" laneChangeMode="5242898" />
    <vehicle id="vehicle_475_rand" type="standard_car" route="W_to_E" depart="61" departLane="random" departSpeed="10" laneChangeMode="5242898" />
    <vehicle id="vehicle_465_rand" type="standard_car" route="E_to_W" depart="63" departLane="random" departSpeed="10" laneChangeMode="5242898" />
    <vehicle id="vehicle_155_rand" type="standard_car" route="N_to_S" depart="69" departLane="random" departSpeed="10" laneChangeMode="5242898" />
    <vehicle id="vehicle_467_rand" type="standard_car" route="E_to_N" depart="78" departLane="random" departSpeed="10" laneChangeMode="5242898" />
    <vehicle id="vehicle_545_rand" type="standard_car" route="W_to_E" depart="92" departLane="random" departSpeed="10" laneChangeMode="5242898" />
    <vehicle id="vehicle_91_rand" type="standard_car" route="N_to_W" depart="95" departLane="random" departSpeed="10" laneChangeMode="5242898" />
    <vehicle id="vehicle_235_rand" type="standard_car" route="N_to_S" depart="97" departLane="random" departSpeed="10" laneChangeMode="5242898" />
    <vehicle id="vehicle_249_rand" type="standard_car" route="E_to_W" depart="105" departLane="random" departSpeed="10" laneChangeMode="5242898" />
    <vehicle id="vehicle_184_rand" type="standard_car" route="S_to_N" depart="106" departLane="random" departSpeed="10" laneChangeMode="5242898" />
    <vehicle id="vehicle_410_rand" type="standard_car" route="W_to_E" depart="120" departLane="random" departSpeed="10" laneChangeMode="5242898" />
    <vehicle id="vehicle_433_rand" type="standard_car" route="S_to_N" depart="130" departLane="random" departSpeed="10" laneChangeMode="5242898" />
    <vehicle id="vehicle_449_rand" type="standard_car" route="W_to_S" depart="145" departLane="random" departSpeed="10" laneChangeMode="5242898" />
    <vehicle id="vehicle_195_rand" type="standard_car" route="W_to_E" depart="154" departLane="random" departSpeed="10" laneChangeMode="5242898" />
    <vehicle id="vehicle_309_rand" type="standard_car" route="S_to_E" depart="161" departLane="random" departSpeed="10" laneChangeMode="5242898" />
    <vehicle id="vehicle_156_rand" type="standard_car" route="N_to_S" depart="177" departLane="random" departSpeed="10" laneChangeMode="5242898" />
    <vehicle id="vehicle_134_rand" type="standard_car" route="N_to_S" depart="179" departLane="random" departSpeed="10" laneChangeMode="5242898" />
    <vehicle id="vehicle_420_rand" type="standard_car" route="N_to_S" depart="180" departLane="random" departSpeed="10" laneChangeMode="5242898" />
    <vehicle id="vehicle_281_rand" type="standard_car" route="S_to_N" depart="186" departLane="random" departSpeed="10" laneChangeMode="5242898" />
    <vehicle id="vehicle_263_rand" type="standard_car" route="S_to_N" depart="189" departLane="random" departSpeed="10" laneChangeMode="5242898" />
    <vehicle id="vehicle_69_rand" type="standard_car" route="E_to_W" depart="214" departLane="random" departSpeed="10" laneChangeMode="5242898" />
    <vehicle id="vehicle_591_rand" type="standard_car" route="W_to_E" depart="223" departLane="random" departSpeed="10" laneChangeMode="5242898" />
    <vehicle id="vehicle_197_rand" type="standard_car" route="S_to_N" depart="226" departLane="random" departSpeed="10" laneChangeMode="5242898" />
    <vehicle id="vehicle_416_rand" type="standard_car" route="N_to_E" depart="227" departLane="random" departSpeed="10" laneChangeMode="5242898" />
    <vehicle id="vehicle_108_rand" type="standard_car" route="W_to_E" depart="228" departLane="random" departSpeed="10" laneChangeMode="5242898" />
    <vehicle id="vehicle_458_rand" type="standard_car" route="E_to_W" depart="230" departLane="random" departSpeed="10" laneChangeMode="5242898" />
    <vehicle id="vehicle_1_rand" type="standard_car" route="N_to_S" depart="233" departLane="random" departSpeed="10" laneChangeMode="5242898" />
    <vehicle id="vehicle_55_rand" type="standard_car" route="E_to_W" depart="238" departLane="random" departSpeed="10" laneChangeMode="5242898" />
    <vehicle id="vehicle_583_rand" type="standard_car" route="W_to_E" depart="240" departLane="random" departSpeed="10" laneChangeMode="5242898" />
    <vehicle id="vehicle_231_rand" type="standard_car" route="W_to_S" depart="247" departLane="random" departSpeed="10" laneChangeMode="5242898" />
    <vehicle id="vehicle_527_rand" type="standard_car" route="E_to_W" depart="248" departLane="random" departSpeed="10" laneChangeMode="5242898" />
    <vehicle id="vehicle_288_rand" type="standard_car" route="S_to_N" depart="249" departLane="random" departSpeed="10" laneChangeMode="5242898" />
    <vehicle id="vehicle_540_rand" type="standard_car" route="E_to_W" depart="251" departLane="random" departSpeed="10" laneChangeMode="5242898" />
    <vehicle id="vehicle_283_rand" type="standard_car" route="N_to_S" depart="257" departLane="random" departSpeed="10" laneChangeMode="5242898" />
    <vehicle id="vehicle_261_rand" type="standard_car" route="W_to_E" depart="260" departLane="random" departSpeed="10" laneChangeMode="5242898" />
    <vehicle id="vehicle_243_rand" type="standard_car" route="N_to_S" depart="274" departLane="random" departSpeed="10" laneChangeMode="5242898" />
    <vehicle id="vehicle_219_rand" type="standard_car" route="E_to_W" depart="289" departLane="random" departSpeed="10" laneChangeMode="5242898" />
    <vehicle id="vehicle_59_rand" type="standard_car" route="W_to_S" depart="299" departLane="random" departSpeed="10" laneChangeMode="5242898" />
    <vehicle id="vehicle_151_rand" type="standard_car" route="S_to_N" depart="302" departLane="random" departSpeed="10" laneChangeMode="5242898" />
    <vehicle id="vehicle_194_gaussian" type="standard_car" route="N_to_E" depart="303" departLane="random" departSpeed="10" laneChangeMode="5242898" />
    <vehicle id="vehicle_362_rand" type="standard_car" route="E_to_W" depart="306" departLane="random" departSpeed="10" laneChangeMode="5242898" />
    <vehicle id="vehicle_460_rand" type="standard_car" route="E_to_W" depart="308" departLane="random" departSpeed="10" laneChangeMode="5242898" />
    <vehicle id="vehicle_473_rand" type="standard_car" route="E_to_W" depart="313" departLane="random" departSpeed="10" laneChangeMode="5242898" />
    <vehicle id="vehicle_299_rand" type="standard_car" route="W_to_S" depart="320" departLane="random" departSpeed="10" laneChangeMode="5242898" />
    <vehicle id="vehicle_247_rand" type="standard_car" route="W_to_E" depart="326" departLane="random" departSpeed="10" laneChangeMode="5242898" />
    <vehicle id="vehicle_80_rand" type="standard_car" route="W_to_E" depart="327" departLane="random" departSpeed="10" laneChangeMode="5242898" />
    <vehicle id="vehicle_273_rand" type="standard_car" route="W_to_E" depart="338" departLane="random" departSpeed="10" laneChangeMode="5242898" />
    <vehicle id="vehicle_183_rand" type="standard_car" route="S_to_N" depart="348" departLane="random" departSpeed="10" laneChangeMode="5242898" />
    <vehicle id="vehicle_302_rand" type="standard_car" route="N_to_S" depart="349" departLane="random" departSpeed="10" laneChangeMode="5242898" />
    <vehicle id="vehicle_97_rand" type="standard_car" route="N_to_S" depart="354" departLane="random" departSpeed="10" laneChangeMode="5242898" />
    <vehicle id="vehicle_349_rand" type="standard_car" route="E_to_W" depart="357" departLane="random" departSpeed="10" laneChangeMode="5242898" />
    <vehicle id="vehicle_298_rand" type="standard_car" route="S_to_E" depart="366" departLane="random" departSpeed="10" laneChangeMode="5242898" />
    <vehicle id="vehicle_161_rand" type="standard_car" route="N_to_W" depart="372" departLane="random" departSpeed="10" laneChangeMode="5242898" />
    <vehicle id="vehicle_542_rand" type="standard_car" route="E_to_W" depart="382" departLane="random" departSpeed="10" laneChangeMode="5242898" />
    <vehicle id="vehicle_515_rand" type="standard_car" route="N_to_W" depart="386" departLane="random" departSpeed="10" laneChangeMode="5242898" />
    <vehicle id="vehicle_596_rand" type="standard_car" route="N_to_S" depart="390" departLane="random" departSpeed="10" laneChangeMode="5242898" />
    <vehicle id="vehicle_587_rand" type="standard_car" route="S_to_N" depart="400" departLane="random" departSpeed="10" laneChangeMode="5242898" />
    <vehicle id="vehicle_124_rand" type="standard_car" route="N_to_S" depart="402" departLane="random" departSpeed="10" laneChangeMode="5242898" />
    <vehicle id="vehicle_17_rand" type="standard_car" route="S_to_N" depart="409" departLane="random" departSpeed="10" laneChangeMode="5242898" />
    <vehicle id="vehicle_573_rand" type="standard_car" route="N_to_S" depart="409" departLane="random" departSpeed="10" laneChangeMode="5242898" />
    <vehicle id="vehicle_126_gaussian" type="standard_car" route="N_to_S" depart="411" departLane="random" departSpeed="10" laneChangeMode="5242898" />
    <vehicle id="vehicle_32_gaussian" type="standard_car" route="N_to_E" depart="411" departLane="random" departSpeed="10" laneChangeMode="5242898" />
    <vehicle id="vehicle_350_rand" type="standard_car" route="S_to_N" depart="412" departLane="random" departSpeed="10" laneChangeMode="5242898" />
    <vehicle id="vehicle_522_rand" type="standard_car" route="N_to_S" depart="412" departLane="random" departSpeed="10" laneChangeMode="5242898" />
    <vehicle id="vehicle_245_gaussian" type="standard_car" route="N_to_S" depart="414" departLane="random" departSpeed="10" laneChangeMode="5242898" />
    <vehicle id="vehicle_290_rand" type="standard_car" route="W_to_E" depart="414" departLane="random" departSpeed="10" laneChangeMode="5242898" />
    <vehicle id="vehicle_272_gaussian" type="standard_car" route="S_to_N" depart="422" departLane="random" departSpeed="10" laneChangeMode="5242898" />
    <vehicle id="vehicle_571_rand" type="standard_car" route="S_to_N" depart="422" departLane="random" departSpeed="10" laneChangeMode="5242898" />
    <vehicle id="vehicle_380_gaussian" type="standard_car" route="N_to_S" depart="423" departLane="random" departSpeed="10" laneChangeMode="5242898" />
    <vehicle id="vehicle_206_gaussian" type="standard_car" route="S_to_N" depart="428" departLane="random" departSpeed="10" laneChangeMode="5242898" />
    <vehicle id="vehicle_306_rand" type="standard_car" route="E_to_N" depart="429" departLane="random" departSpeed="10" laneChangeMode="5242898" />
    <vehicle id="vehicle_372_rand" type="standard_car" route="N_to_E" depart="435" departLane="random" departSpeed="10" laneChangeMode="5242898" />
    <vehicle id="vehicle_100_gaussian" type="standard_car" route="S_to_W" depart="436" departLane="random" departSpeed="10" laneChangeMode="5242898" />
    <vehicle id="vehicle_231_gaussian" type="standard_car" route="S_to_N" depart="436" departLane="random" departSpeed="10" laneChangeMode="5242898" />
    <vehicle id="vehicle_361_gaussian" type="standard_car" route="N_to_S" depart="437" departLane="random" departSpeed="10" laneChangeMode="5242898" />
    <vehicle id="vehicle_82_rand" type="standard_car" route="E_to_W" depart="440" departLane="random" departSpeed="10" laneChangeMode="5242898" />
    <vehicle id="vehicle_14_gaussian" type="standard_car" route="N_to_S" depart="441" departLane="random" departSpeed="10" laneChangeMode="5242898" />
    <vehicle id="vehicle_242_rand" type="standard_car" route="E_to_N" depart="444" departLane="random" departSpeed="10" laneChangeMode="5242898" />
    <vehicle id="vehicle_320_rand" type="standard_car" route="W_to_E" depart="445" departLane="random" departSpeed="10" laneChangeMode="5242898" />
    <vehicle id="vehicle_151_gaussian" type="standard_car" route="N_to_S" depart="446" departLane="random" departSpeed="10" laneChangeMode="5242898" />
    <vehicle id="vehicle_263_gaussian" type="standard_car" route="S_to_N" depart="446" departLane="random" departSpeed="10" laneChangeMode="5242898" />
    <vehicle id="vehicle_0_rand" type="standard_car" route="E_to_W" depart="447" departLane="random" departSpeed="10" laneChangeMode="5242898" />
    <vehicle id="vehicle_222_rand" type="standard_car" route="S_to_E" depart="449" departLane="random" departSpeed="10" laneChangeMode="5242898" />
    <vehicle id="vehicle_226_gaussian" type="standard_car" route="N_to_S" depart="451" departLane="random" departSpeed="10" laneChangeMode="5242898" />
    <vehicle id="vehicle_116_gaussian" type="standard_car" route="S_to_W" depart="453" departLane="random" departSpeed="10" laneChangeMode="5242898" />
    <vehicle id="vehicle_55_gaussian" type="standard_car" route="S_to_W" depart="453" departLane="random" departSpeed="10" laneChangeMode="5242898" />
    <vehicle id="vehicle_155_gaussian" type="standard_car" route="N_to_S" depart="456" departLane="random" departSpeed="10" laneChangeMode="5242898" />
    <vehicle id="vehicle_64_gaussian" type="standard_car" route="N_to_S" depart="459" departLane="random" departSpeed="10" laneChangeMode="5242898" />
    <vehicle id="vehicle_399_gaussian" type="standard_car" route="N_to_S" depart="461" departLane="random" departSpeed="10" laneChangeMode="5242898" />
    <vehicle id="vehicle_70_gaussian" type="standard_car" route="N_to_S" depart="461" departLane="random" departSpeed="10" laneChangeMode="5242898" />
    <vehicle id="vehicle_248_gaussian" type="standard_car" route="N_to_W" depart="463" departLane="random" departSpeed="10" laneChangeMode="5242898" />
    <vehicle id="vehicle_276_rand" type="standard_car" route="E_to_W" depart="468" departLane="random" departSpeed="10" laneChangeMode="5242898" />
    <vehicle id="vehicle_370_gaussian" type="standard_car" route="N_to_W" depart="469" departLane="random" departSpeed="10" laneChangeMode="5242898" />
    <vehicle id="vehicle_129_gaussian" type="standard_car" route="S_to_W" depart="470" departLane="random" departSpeed="10" laneChangeMode="5242898" />
    <vehicle id="vehicle_128_gaussian" type="standard_car" route="S_to_N" depart="476" departLane="random" departSpeed="10" laneChangeMode="5242898" />
    <vehicle id="vehicle_215_gaussian" type="standard_car" route="S_to_W" depart="483" departLane="random" departSpeed="10" laneChangeMode="5242898" />
    <vehicle id="vehicle_244_gaussian" type="standard_car" route="N_to_S" depart="484" departLane="random" departSpeed="10" laneChangeMode="5242898" />
    <vehicle id="vehicle_113_rand" type="standard_car" route="W_to_E" depart="489" departLane="random" departSpeed="10" laneChangeMode="5242898" />
    <vehicle id="vehicle_146_rand" type="standard_car" route="E_to_W" depart="489" departLane="random" departSpeed="10" laneChangeMode="5242898" />
    <vehicle id="vehicle_177_gaussian" type="standard_car" route="N_to_S" depart="490" departLane="random" departSpeed="10" laneChangeMode="5242898" />
    <vehicle id="vehicle_204_gaussian" type="standard_car" route="N_to_S" depart="492" departLane="random" departSpeed="10" laneChangeMode="5242898" />
    <vehicle id="vehicle_309_gaussian" type="standard_car" route="S_to_W" depart="494" departLane="random" departSpeed="10" laneChangeMode="5242898" />
    <vehicle id="vehicle_0_gaussian" type="standard_car" route="N_to_S" depart="495" departLane="random" departSpeed="10" laneChangeMode="5242898" />
    <vehicle id="vehicle_203_gaussian" type="standard_car" route="S_to_W" depart="495" departLane="random" departSpeed="10" laneChangeMode="5242898" />
    <vehicle id="vehicle_354_gaussian" type="standard_car" route="S_to_E" depart="497" departLane="random" departSpeed="10" laneChangeMode="5242898" />
    <vehicle id="vehicle_333_gaussian" type="standard_car" route="N_to_S" depart="498" departLane="random" departSpeed="10" laneChangeMode="5242898" />
    <vehicle id="vehicle_270_gaussian" type="standard_car" route="S_to_N" depart="500" departLane="random" departSpeed="10" laneChangeMode="5242898" />
    <vehicle id="vehicle_474_rand" type="standard_car" route="E_to_W" depart="501" departLane="random" departSpeed="10" laneChangeMode="5242898" />
    <vehicle id="vehicle_259_rand" type="standard_car" route="W_to_N" depart="502" departLane="random" departSpeed="10" laneChangeMode="5242898" />
    <vehicle id="vehicle_175_gaussian" type="standard_car" route="S_to_N" depart="503" departLane="random" departSpeed="10" laneChangeMode="5242898" />
    <vehicle id="vehicle_225_gaussian" type="standard_car" route="N_to_S" depart="505" departLane="random" departSpeed="10" laneChangeMode="5242898" />
    <vehicle id="vehicle_163_rand" type="standard_car" route="S_to_N" depart="510" departLane="random" departSpeed="10" laneChangeMode="5242898" />
    <vehicle id="vehicle_316_rand" type="standard_car" route="E_to_W" depart="510" departLane="random" departSpeed="10" laneChangeMode="5242898" />
    <vehicle id="vehicle_327_rand" type="standard_car" route="N_to_W" depart="510" departLane="random" departSpeed="10" laneChangeMode="5242898" />
    <vehicle id="vehicle_85_gaussian" type="standard_car" route="N_to_S" depart="510" departLane="random" departSpeed="10" laneChangeMode="5242898" />
    <vehicle id="vehicle_158_gaussian" type="standard_car" route="S_to_E" depart="511" departLane="random" departSpeed="10" laneChangeMode="5242898" />
    <vehicle id="vehicle_127_gaussian" type="standard_car" route="N_to_S" depart="512" departLane="random" departSpeed="10" laneChangeMode="5242898" />
    <vehicle id="vehicle_106_gaussian" type="standard_car" route="N_to_S" depart="513" departLane="random" departSpeed="10" laneChangeMode="5242898" />
    <vehicle id="vehicle_336_gaussian" type="standard_car" route="N_to_E" depart="515" departLane="random" departSpeed="10" laneChangeMode="5242898" />
    <vehicle id="vehicle_171_gaussian" type="standard_car" route="N_to_S" depart="516" departLane="random" departSpeed="10" laneChangeMode="5242898" />
    <vehicle id="vehicle_136_gaussian" type="standard_car" route="N_to_E" depart="517" departLane="random" departSpeed="10" laneChangeMode="5242898" />
    <vehicle id="vehicle_186_rand" type="standard_car" route="S_to_W" depart="519" departLane="random" departSpeed="10" laneChangeMode="5242898" />
    <vehicle id="vehicle_21_gaussian" type="standard_car" route="S_to_N" depart="519" departLane="random" departSpeed="10" laneChangeMode="5242898" />
    <vehicle id="vehicle_259_gaussian" type="standard_car" route="S_to_N" depart="519" departLane="random" departSpeed="10" laneChangeMode="5242898" />
    <vehicle id="vehicle_385_rand" type="standard_car" route="S_to_N" depart="519" departLane="random" departSpeed="10" laneChangeMode="5242898" />
    <vehicle id="vehicle_579_rand" type="standard_car" route="N_to_S" depart="520" departLane="random" departSpeed="10" laneChangeMode="5242898" />
    <vehicle id="vehicle_239_gaussian" type="standard_car" route="N_to_W" depart="522" departLane="random" departSpeed="10" laneChangeMode="5242898" />
    <vehicle id="vehicle_109_gaussian" type="standard_car" route="N_to_S" depart="523" departLane="random" departSpeed="10" laneChangeMode="5242898" />
    <vehicle id="vehicle_174_rand" type="standard_car" route="E_to_W" depart="526" departLane="random" departSpeed="10" laneChangeMode="5242898" />
    <vehicle id="vehicle_167_gaussian" type="standard_car" route="N_to_E" depart="528" departLane="random" departSpeed="10" laneChangeMode="5242898" />
    <vehicle id="vehicle_209_gaussian" type="standard_car" route="N_to_S" depart="529" departLane="random" departSpeed="10" laneChangeMode="5242898" />
    <vehicle id="vehicle_149_gaussian" type="standard_car" route="N_to_S" depart="530" departLane="random" departSpeed="10" laneChangeMode="5242898" />
    <vehicle id="vehicle_274_gaussian" type="standard_car" route="N_to_S" depart="530" departLane="random" departSpeed="10" laneChangeMode="5242898" />
    <vehicle id="vehicle_94_rand" type="standard_car" route="E_to_W" depart="531" departLane="random" departSpeed="10" laneChangeMode="5242898" />
    <vehicle id="vehicle_143_gaussian" type="standard_car" route="N_to_S" depart="533" departLane="random" departSpeed="10" laneChangeMode="5242898" />
    <vehicle id="vehicle_38_gaussian" type="standard_car" route="S_to_W" depart="533" departLane="random" departSpeed="10" laneChangeMode="5242898" />
    <vehicle id="vehicle_384_gaussian" type="standard_car" route="N_to_S" depart="534" departLane="random" departSpeed="10" laneChangeMode="5242898" />
    <vehicle id="vehicle_295_rand" type="standard_car" route="N_to_S" depart="536" departLane="random" departSpeed="10" laneChangeMode="5242898" />
    <vehicle id="vehicle_191_gaussian" type="standard_car" route="S_to_N" depart="538" departLane="random" departSpeed="10" laneChangeMode="5242898" />
    <vehicle id="vehicle_150_gaussian" type="standard_car" route="N_to_S" depart="539" departLane="random" departSpeed="10" laneChangeMode="5242898" />
    <vehicle id="vehicle_426_rand" type="standard_car" route="E_to_W" depart="539" departLane="random" departSpeed="10" laneChangeMode="5242898" />
    <vehicle id="vehicle_22_gaussian" type="standard_car" route="S_to_N" depart="540" departLane="random" departSpeed="10" laneChangeMode="5242898" />
    <vehicle id="vehicle_371_gaussian" type="standard_car" route="N_to_S" depart="540" departLane="random" departSpeed="10" laneChangeMode="5242898" />
    <vehicle id="vehicle_301_gaussian" type="standard_car" route="N_to_E" depart="542" departLane="random" departSpeed="10" laneChangeMode="5242898" />
    <vehicle id="vehicle_101_gaussian" type="standard_car" route="N_to_S" depart="543" departLane="random" departSpeed="10" laneChangeMode="5242898" />
    <vehicle id="vehicle_67_rand" type="standard_car" route="E_to_W" depart="543" departLane="random" departSpeed="10" laneChangeMode="5242898" />
    <vehicle id="vehicle_128_rand" type="standard_car" route="W_to_E" depart="544" departLane="random" departSpeed="10" laneChangeMode="5242898" />
    <vehicle id="vehicle_102_gaussian" type="standard_car" route="N_to_S" depart="545" departLane="random" departSpeed="10" laneChangeMode="5242898" />
    <vehicle id="vehicle_314_gaussian" type="standard_car" route="S_to_N" depart="549" departLane="random" departSpeed="10" laneChangeMode="5242898" />
    <vehicle id="vehicle_347_gaussian" type="standard_car" route="S_to_N" depart="549" departLane="random" departSpeed="10" laneChangeMode="5242898" />
    <vehicle id="vehicle_320_gaussian" type="standard_car" route="S_to_N" depart="554" departLane="random" departSpeed="10" laneChangeMode="5242898" />
    <vehicle id="vehicle_122_rand" type="standard_car" route="N_to_E" depart="559" departLane="random" departSpeed="10" laneChangeMode="5242898" />
    <vehicle id="vehicle_243_gaussian" type="standard_car" route="S_to_W" depart="563" departLane="random" departSpeed="10" laneChangeMode="5242898" />
    <vehicle id="vehicle_297_rand" type="standard_car" route="N_to_E" depart="563" departLane="random" departSpeed="10" laneChangeMode="5242898" />
    <vehicle id="vehicle_75_gaussian" type="standard_car" route="S_to_W" depart="563" departLane="random" departSpeed="10" laneChangeMode="5242898" />
    <vehicle id="vehicle_317_gaussian" type="standard_car" route="S_to_N" depart="566" departLane="random" departSpeed="10" laneChangeMode="5242898" />
    <vehicle id="vehicle_176_gaussian" type="standard_car" route="N_to_W" depart="567" departLane="random" departSpeed="10" laneChangeMode="5242898" />
    <vehicle id="vehicle_182_gaussian" type="standard_car" route="N_to_S" depart="568" departLane="random" departSpeed="10" laneChangeMode="5242898" />
    <vehicle id="vehicle_117_gaussian" type="standard_car" route="S_to_N" depart="573" departLane="random" departSpeed="10" laneChangeMode="5242898" />
    <vehicle id="vehicle_249_gaussian" type="standard_car" route="N_to_S" depart="575" departLane="random" departSpeed="10" laneChangeMode="5242898" />
    <vehicle id="vehicle_348_gaussian" type="standard_car" route="S_to_W" depart="575" departLane="random" departSpeed="10" laneChangeMode="5242898" />
    <vehicle id="vehicle_37_gaussian" type="standard_car" route="N_to_S" depart="576" departLane="random" departSpeed="10" laneChangeMode="5242898" />
    <vehicle id="vehicle_13_gaussian" type="standard_car" route="N_to_S" depart="578" departLane="random" departSpeed="10" laneChangeMode="5242898" />
    <vehicle id="vehicle_69_gaussian" type="standard_car" route="N_to_E" depart="578" departLane="random" departSpeed="10" laneChangeMode="5242898" />
    <vehicle id="vehicle_114_gaussian" type="standard_car" route="S_to_N" depart="580" departLane="random" departSpeed="10" laneChangeMode="5242898" />
    <vehicle id="vehicle_1_gaussian" type="standard_car" route="N_to_S" depart="580" departLane="random" departSpeed="10" laneChangeMode="5242898" />
    <vehicle id="vehicle_41_gaussian" type="standard_car" route="S_to_W" depart="582" departLane="random" departSpeed="10" laneChangeMode="5242898" />
    <vehicle id="vehicle_11_gaussian" type="standard_car" route="S_to_E" depart="587" departLane="random" departSpeed="10" laneChangeMode="5242898" />
    <vehicle id="vehicle_374_gaussian" type="standard_car" route="S_to_N" depart="587" departLane="random" departSpeed="10" laneChangeMode="5242898" />
    <vehicle id="vehicle_264_gaussian" type="standard_car" route="S_to_E" depart="589" departLane="random" departSpeed="10" laneChangeMode="5242898" />
    <vehicle id="vehicle_173_gaussian" type="standard_car" route="S_to_N" depart="590" departLane="random" departSpeed="10" laneChangeMode="5242898" />
    <vehicle id="vehicle_193_gaussian" type="standard_car" route="N_to_S" depart="592" departLane="random" departSpeed="10" laneChangeMode="5242898" />
    <vehicle id="vehicle_340_gaussian" type="standard_car" route="S_to_N" depart="594" departLane="random" departSpeed="10" laneChangeMode="5242898" />
    <vehicle id="vehicle_46_gaussian" type="standard_car" route="S_to_N" depart="595" departLane="random" departSpeed="10" laneChangeMode="5242898" />
    <vehicle id="vehicle_308_gaussian" type="standard_car" route="S_to_N" depart="596" departLane="random" departSpeed="10" laneChangeMode="5242898" />
    <vehicle id="vehicle_237_gaussian" type="standard_car" route="N_to_S" depart="598" departLane="random" departSpeed="10" laneChangeMode="5242898" />
    <vehicle id="vehicle_33_gaussian" type="standard_car" route="N_to_S" depart="598" departLane="random" departSpeed="10" laneChangeMode="5242898" />
    <vehicle id="vehicle_228_gaussian" type="standard_car" route="N_to_S" depart="602" departLane="random" departSpeed="10" laneChangeMode="5242898" />
    <vehicle id="vehicle_121_gaussian" type="standard_car" route="N_to_S" depart="603" departLane="random" departSpeed="10" laneChangeMode="5242898" />
    <vehicle id="vehicle_268_gaussian" type="standard_car" route="N_to_S" depart="609" departLane="random" departSpeed="10" laneChangeMode="5242898" />
    <vehicle id="vehicle_97_gaussian" type="standard_car" route="S_to_W" depart="609" departLane="random" departSpeed="10" laneChangeMode="5242898" />