                
<routes>
            <vType accel="1.0" decel="4.5" id="standard_car" length="5.0" minGap="2.5" maxSpeed="25" sigma="0.5" laneChangeMode="5242898"/>
            
            <!-- route definition (the car route) -->

            <route id="W_to_N" edges="W_in N_out"/>
            <route id="W_to_E" edges="W_in E_out"/>
            <route id="W_to_S" edges="W_in S_out"/>
            <route id="N_to_W" edges="N_in W_out"/>
            <route id="N_to_E" edges="N_in E_out"/>
            <route id="N_to_S" edges="N_in S_out"/>
            <route id="E_to_W" edges="E_in W_out"/>
            <route id="E_to_N" edges="E_in N_out"/>
            <route id="E_to_S" edges="E_in S_out"/>
            <route id="S_to_W" edges="S_in W_out"/>
            <route id="S_to_N" edges="S_in N_out"/>
            <route id="S_to_E" edges="S_in E_out"/>
    <vehicle id="vehicle_419_rand" type="standard_car" route="N_to_S" depart="1" departLane="random" departSpeed="10" laneChangeMode="5242898" />
    <vehicle id="vehicle_408_rand" type="standard_car" route="N_to_S" depart="7" departLane="random" departSpeed="10" laneChangeMode="5242898" />
    <vehicle id="vehicle_333_rand" type="standard_car" route="N_to_S" depart="9" departLane="random" departSpeed="10" laneChangeMode="5242898" />
    <vehicle id="vehicle_258_rand" type="standard_car" route="S_to_N" depart="10" departLane="random" departSpeed="10" laneChangeMode="5242898" />
    <vehicle id="vehicle_86_rand" type="standard_car" route="W_to_E" depart="21" departLane="random" departSpeed="10" laneChangeMode="5242898" />
    <vehicle id="vehicle_449_rand" type="standard_car" route="W_to_E" depart="23" departLane="random" departSpeed="10" laneChangeMode="5242898" />
    <vehicle id="vehicle_484_rand" type="standard_car" route="S_to_N" depart="33" departLane="random" departSpeed="10" laneChangeMode="5242898" />
    <vehicle id="vehicle_125_rand" type="standard_car" route="W_to_E" depart="36" departLane="random" departSpeed="10" laneChangeMode="5242898" />
    <vehicle id="vehicle_55_rand" type="standard_car" route="W_to_E" depart="41" departLane="random" departSpeed="10" laneChangeMode="5242898" />
    <vehicle id="vehicle_49_rand" type="standard_car" route="S_to_E" depart="48" departLane="random" departSpeed="10" laneChangeMode="5242898" />
    <vehicle id="vehicle_597_rand" type="standard_car" route="E_to_W" depart="65" departLane="random" departSpeed="10" laneChangeMode="5242898" />
    <vehicle id="vehicle_189_rand" type="standard_car" route="S_to_W" depart="69" departLane="random" departSpeed="10" laneChangeMode="5242898" />
    <vehicle id="vehicle_528_rand" type="standard_car" route="W_to_E" depart="71" departLane="random" departSpeed="10" laneChangeMode="5242898" />
    <vehicle id="vehicle_96_rand" type="standard_car" route="S_to_N" depart="103" departLane="random" departSpeed="10" laneChangeMode="5242898" />
    <vehicle id="vehicle_505_rand" type="standard_car" route="W_to_E" depart="110" departLane="random" departSpeed="10" laneChangeMode="5242898" />
    <vehicle id="vehicle_60_rand" type="standard_car" route="E_to_W" depart="130" departLane="random" departSpeed="10" laneChangeMode="5242898" />
    <vehicle id="vehicle_203_rand" type="standard_car" route="N_to_S" depart="131" departLane="random" departSpeed="10" laneChangeMode="5242898" />
    <vehicle id="vehicle_362_rand" type="standard_car" route="E_to_W" depart="139" departLane="random" departSpeed="10" laneChangeMode="5242898" />
    <vehicle id="vehicle_503_rand" type="standard_car" route="S_to_N" depart="140" departLane="random" departSpeed="10" laneChangeMode="5242898" />
    <vehicle id="vehicle_288_rand" type="standard_car" route="E_to_N" depart="144" departLane="random" departSpeed="10" laneChangeMode="5242898" />
    <vehicle id="vehicle_194_rand" type="standard_car" route="E_to_W" depart="149" departLane="random" departSpeed="10" laneChangeMode="5242898" />
    <vehicle id="vehicle_267_rand" type="standard_car" route="W_to_E" depart="154" departLane="random" departSpeed="10" laneChangeMode="5242898" />
    <vehicle id="vehicle_519_rand" type="standard_car" route="W_to_E" depart="156" departLane="random" departSpeed="10" laneChangeMode="5242898" />
    <vehicle id="vehicle_352_rand" type="standard_car" route="E_to_N" depart="157" departLane="random" departSpeed="10" laneChangeMode="5242898" />
    <vehicle id="vehicle_464_rand" type="standard_car" route="N_to_S" depart="158" departLane="random" departSpeed="10" laneChangeMode="5242898" />
    <vehicle id="vehicle_360_rand" type="standard_car" route="W_to_E" depart="174" departLane="random" departSpeed="10" laneChangeMode="5242898" />
    <vehicle id="vehicle_35_rand" type="standard_car" route="W_to_S" depart="182" departLane="random" departSpeed="10" laneChangeMode="5242898" />
    <vehicle id="vehicle_282_rand" type="standard_car" route="N_to_S" depart="187" departLane="random" departSpeed="10" laneChangeMode="5242898" />
    <vehicle id="vehicle_512_rand" type="standard_car" route="E_to_W" depart="191" departLane="random" departSpeed="10" laneChangeMode="5242898" />
    <vehicle id="vehicle_318_rand" type="standard_car" route="W_to_S" depart="196" departLane="random" departSpeed="10" laneChangeMode="5242898" />
    <vehicle id="vehicle_427_rand" type="standard_car" route="E_to_W" depart="207" departLane="random" departSpeed="10" laneChangeMode="5242898" />
    <vehicle id="vehicle_478_rand" type="standard_car" route="E_to_W" depart="208" departLane="random" departSpeed="10" laneChangeMode="5242898" />
    <vehicle id="vehicle_551_rand" type="standard_car" route="N_to_S" depart="215" departLane="random" departSpeed="10" laneChangeMode="5242898" />
    <vehicle id="vehicle_531_rand" type="standard_car" route="W_to_E" depart="228" departLane="random" departSpeed="10" laneChangeMode="5242898" />
    <vehicle id="vehicle_548_rand" type="standard_car" route="N_to_W" depart="231" departLane="random" departSpeed="10" laneChangeMode="5242898" />
    <vehicle id="vehicle_377_rand" type="standard_car" route="E_to_N" depart="235" departLane="random" departSpeed="10" laneChangeMode="5242898" />
    <vehicle id="vehicle_95_rand" type="standard_car" route="E_to_N" depart="240" departLane="random" departSpeed="10" laneChangeMode="5242898" />
    <vehicle id="vehicle_404_rand" type="standard_car" route="W_to_E" depart="243" departLane="random" departSpeed="10" laneChangeMode="5242898" />
    <vehicle id="vehicle_578_rand" type="standard_car" route="S_to_N" depart="245" departLane="random" departSpeed="10" laneChangeMode="5242898" />
    <vehicle id="vehicle_201_gaussian" type="standard_car" route="W_to_E" depart="260" departLane="random" departSpeed="10" laneChangeMode="5242898" />
    <vehicle id="vehicle_356_rand" type="standard_car" route="W_to_N" depart="282" departLane="random" departSpeed="10" laneChangeMode="5242898" />
    <vehicle id="vehicle_335_rand" type="standard_car" route="E_to_W" depart="284" departLane="random" departSpeed="10" laneChangeMode="5242898" />
    <vehicle id="vehicle_156_rand" type="standard_car" route="N_to_E" depart="288" departLane="random" departSpeed="10" laneChangeMode="5242898" />
    <vehicle id="vehicle_311_rand" type="standard_car" route="N_to_S" depart="303" departLane="random" departSpeed="10" laneChangeMode="5242898" />
    <vehicle id="vehicle_234_rand" type="standard_car" route="W_to_S" depart="312" departLane="random" departSpeed="10" laneChangeMode="5242898" />
    <vehicle id="vehicle_290_gaussian" type="standard_car" route="W_to_N" depart="312" departLane="random" departSpeed="10" laneChangeMode="5242898" />
    <vehicle id="vehicle_67_gaussian" type="standard_car" route="W_to_E" depart="317" departLane="random" departSpeed="10" laneChangeMode="5242898" />
    <vehicle id="vehicle_434_rand" type="standard_car" route="S_to_W" depart="318" departLane="random" departSpeed="10" laneChangeMode="5242898" />
    <vehicle id="vehicle_151_rand" type="standard_car" route="W_to_E" depart="322" departLane="random" departSpeed="10" laneChangeMode="5242898" />
    <vehicle id="vehicle_40_gaussian" type="standard_car" route="W_to_E" depart="322" departLane="random" departSpeed="10" laneChangeMode="5242898" />
    <vehicle id="vehicle_110_rand" type="standard_car" route="N_to_S" depart="323" departLane="random" departSpeed="10" laneChangeMode="5242898" />
    <vehicle id="vehicle_28_gaussian" type="standard_car" route="W_to_E" depart="327" departLane="random" departSpeed="10" laneChangeMode="5242898" />
    <vehicle id="vehicle_326_rand" type="standard_car" route="N_to_W" depart="328" departLane="random" departSpeed="10" laneChangeMode="5242898" />
    <vehicle id="vehicle_348_rand" type="standard_car" route="N_to_E" depart="329" departLane="random" departSpeed="10" laneChangeMode="5242898" />
    <vehicle id="vehicle_296_gaussian" type="standard_car" route="W_to_E" depart="334" departLane="random" departSpeed="10" laneChangeMode="5242898" />
    <vehicle id="vehicle_363_gaussian" type="standard_car" route="W_to_E" depart="334" departLane="random" departSpeed="10" laneChangeMode="5242898" />
    <vehicle id="vehicle_42_gaussian" type="standard_car" route="W_to_E" depart="338" departLane="random" departSpeed="10" laneChangeMode="5242898" />
    <vehicle id="vehicle_278_rand" type="standard_car" route="W_to_E" depart="339" departLane="random" departSpeed="10" laneChangeMode="5242898" />
    <vehicle id="vehicle_115_rand" type="standard_car" route="W_to_E" depart="343" departLane="random" departSpeed="10" laneChangeMode="5242898" />
    <vehicle id="vehicle_530_rand" type="standard_car" route="S_to_N" depart="346" departLane="random" departSpeed="10" laneChangeMode="5242898" />
    <vehicle id="vehicle_256_gaussian" type="standard_car" route="W_to_E" depart="348" departLane="random" departSpeed="10" laneChangeMode="5242898" />
    <vehicle id="vehicle_422_rand" type="standard_car" route="E_to_W" depart="350" departLane="random" departSpeed="10" laneChangeMode="5242898" />
    <vehicle id="vehicle_400_rand" type="standard_car" route="N_to_S" depart="351" departLane="random" departSpeed="10" laneChangeMode="5242898" />
    <vehicle id="vehicle_70_gaussian" type="standard_car" route="W_to_E" depart="352" departLane="random" departSpeed="10" laneChangeMode="5242898" />
    <vehicle id="vehicle_237_rand" type="standard_car" route="W_to_E" depart="354" departLane="random" departSpeed="10" laneChangeMode="5242898" />
    <vehicle id="vehicle_261_gaussian" type="standard_car" route="W_to_E" depart="354" departLane="random" departSpeed="10" laneChangeMode="5242898" />
    <vehicle id="vehicle_210_rand" type="standard_car" route="W_to_N" depart="355" departLane="random" departSpeed="10" laneChangeMode="5242898" />
    <vehicle id="vehicle_137_gaussian" type="standard_car" route="W_to_E" depart="357" departLane="random" departSpeed="10" laneChangeMode="5242898" />
    <vehicle id="vehicle_385_rand" type="standard_car" route="W_to_E" depart="361" departLane="random" departSpeed="10" laneChangeMode="5242898" />
    <vehicle id="vehicle_287_rand" type="standard_car" route="S_to_N" depart="363" departLane="random" departSpeed="10" laneChangeMode="5242898" />
    <vehicle id="vehicle_561_rand" type="standard_car" route="N_to_E" depart="366" departLane="random" departSpeed="10" laneChangeMode="5242898" />
    <vehicle id="vehicle_389_rand" type="standard_car" route="W_to_E" depart="367" departLane="random" departSpeed="10" laneChangeMode="5242898" />
    <vehicle id="vehicle_5_rand" type="standard_car" route="N_to_S" depart="368" departLane="random" departSpeed="10" laneChangeMode="5242898" />
    <vehicle id="vehicle_335_gaussian" type="standard_car" route="W_to_E" depart="369" departLane="random" departSpeed="10" laneChangeMode="5242898" />
    <vehicle id="vehicle_173_gaussian" type="standard_car" route="W_to_S" depart="373" departLane="random" departSpeed="10" laneChangeMode="5242898" />
    <vehicle id="vehicle_179_gaussian" type="standard_car" route="W_to_E" depart="374" departLane="random" departSpeed="10" laneChangeMode="5242898" />
    <vehicle id="vehicle_211_rand" type="standard_car" route="N_to_S" depart="377" departLane="random" departSpeed="10" laneChangeMode="5242898" />
    <vehicle id="vehicle_118_gaussian" type="standard_car" route="W_to_E" depart="378" departLane="random" departSpeed="10" laneChangeMode="5242898" />
    <vehicle id="vehicle_473_rand" type="standard_car" route="S_to_E" depart="384" departLane="random" departSpeed="10" laneChangeMode="5242898" />
    <vehicle id="vehicle_361_gaussian" type="standard_car" route="W_to_E" depart="387" departLane="random" departSpeed="10" laneChangeMode="5242898" />
    <vehicle id="vehicle_158_gaussian" type="standard_car" route="W_to_E" depart="388" departLane="random" departSpeed="10" laneChangeMode="5242898" />
    <vehicle id="vehicle_75_gaussian" type="standard_car" route="W_to_S" depart="389" departLane="random" departSpeed="10" laneChangeMode="5242898" />
    <vehicle id="vehicle_90_rand" type="standard_car" route="W_to_E" depart="389" departLane="random" departSpeed="10" laneChangeMode="5242898" />
    <vehicle id="vehicle_252_gaussian" type="standard_car" route="W_to_E" depart="390" departLane="random" departSpeed="10" laneChangeMode="5242898" />
    <vehicle id="vehicle_158_rand" type="standard_car" route="W_to_E" depart="391" departLane="random" departSpeed="10" laneChangeMode="5242898" />
    <vehicle id="vehicle_182_gaussian" type="standard_car" route="W_to_N" depart="392" departLane="random" departSpeed="10" laneChangeMode="5242898" />
    <vehicle id="vehicle_95_gaussian" type="standard_car" route="W_to_E" depart="395" departLane="random" departSpeed="10" laneChangeMode="5242898" />
    <vehicle id="vehicle_522_rand" type="standard_car" route="W_to_E" depart="398" departLane="random" departSpeed="10" laneChangeMode="5242898" />
    <vehicle id="vehicle_197_gaussian" type="standard_car" route="W_to_E" depart="400" departLane="random" departSpeed="10" laneChangeMode="5242898" />
    <vehicle id="vehicle_252_rand" type="standard_car" route="S_to_W" depart="401" departLane="random" departSpeed="10" laneChangeMode="5242898" />
    <vehicle id="vehicle_582_rand" type="standard_car" route="S_to_N" depart="404" departLane="random" departSpeed="10" laneChangeMode="5242898" />
    <vehicle id="vehicle_97_rand" type="standard_car" route="S_to_W" depart="404" departLane="random" departSpeed="10" laneChangeMode="5242898" />
    <vehicle id="vehicle_270_gaussian" type="standard_car" route="W_to_E" depart="405" departLane="random" departSpeed="10" laneChangeMode="5242898" />
    <vehicle id="vehicle_369_gaussian" type="standard_car" route="W_to_E" depart="405" departLane="random" departSpeed="10" laneChangeMode="5242898" />
    <vehicle id="vehicle_591_rand" type="standard_car" route="W_to_E" depart="405" departLane="random" departSpeed="10" laneChangeMode="5242898" />
    <vehicle id="vehicle_126_gaussian" type="standard_car" route="W_to_E" depart="406" departLane="random" departSpeed="10" laneChangeMode="5242898" />
    <vehicle id="vehicle_228_gaussian" type="standard_car" route="W_to_E" depart="407" departLane="random" departSpeed="10" laneChangeMode="5242898" />
    <vehicle id="vehicle_122_rand" type="standard_car" route="E_to_N" depart="409" departLane="random" departSpeed="10" laneChangeMode="5242898" />
    <vehicle id="vehicle_247_gaussian" type="standard_car" route="W_to_E" depart="410" departLane="random" departSpeed="10" laneChangeMode="5242898" />
    <vehicle id="vehicle_137_rand" type="standard_car" route="W_to_S" depart="411" departLane="random" departSpeed="10" laneChangeMode="5242898" />
    <vehicle id="vehicle_469_rand" type="standard_car" route="E_to_N" depart="411" departLane="random" departSpeed="10" laneChangeMode="5242898" />
    <vehicle id="vehicle_554_rand" type="standard_car" route="S_to_N" depart="412" departLane="random" departSpeed="10" laneChangeMode="5242898" />
    <vehicle id="vehicle_546_rand" type="standard_car" route="N_to_S" depart="413" departLane="random" departSpeed="10" laneChangeMode="5242898" />
    <vehicle id="vehicle_220_gaussian" type="standard_car" route="W_to_E" depart="417" departLane="random" departSpeed="10" laneChangeMode="5242898" />
    <vehicle id="vehicle_340_gaussian" type="standard_car" route="W_to_S" depart="418" departLane="random" departSpeed="10" laneChangeMode="5242898" />
    <vehicle id="vehicle_568_rand" type="standard_car" route="N_to_S" depart="418" departLane="random" departSpeed="10" laneChangeMode="5242898" />
    <vehicle id="vehicle_230_gaussian" type="standard_car" route="W_to_N" depart="420" departLane="random" departSpeed="10" laneChangeMode="5242898" />
    <vehicle id="vehicle_33_gaussian" type="standard_car" route="W_to_E" depart="420" departLane="random" departSpeed="10" laneChangeMode="5242898" />
    <vehicle id="vehicle_393_gaussian" type="standard_car" route="W_to_E" depart="421" departLane="random" departSpeed="10" laneChangeMode="5242898" />
    <vehicle id="vehicle_592_rand" type="standard_car" route="E_to_W" depart="423" departLane="random" departSpeed="10" laneChangeMode="5242898" />
    <vehicle id="vehicle_156_gaussian" type="standard_car" route="W_to_N" depart="429" departLane="random" departSpeed="10" laneChangeMode="5242898" />
    <vehicle id="vehicle_74_gaussian" type="standard_car" route="W_to_E" depart="431" departLane="random" departSpeed="10" laneChangeMode="5242898" />
    <vehicle id="vehicle_229_gaussian" type="standard_car" route="W_to_E" depart="432" departLane="random" departSpeed="10" laneChangeMode="5242898" />
    <vehicle id="vehicle_366_gaussian" type="standard_car" route="W_to_E" depart="432" departLane="random" departSpeed="10" laneChangeMode="5242898" />
    <vehicle id="vehicle_84_gaussian" type="standard_car" route="W_to_E" depart="434" departLane="random" departSpeed="10" laneChangeMode="5242898" />
    <vehicle id="vehicle_277_gaussian" type="standard_car" route="W_to_E" depart="441" departLane="random" departSpeed="10" laneChangeMode="5242898" />
    <vehicle id="vehicle_186_gaussian" type="standard_car" route="W_to_E" depart="444" departLane="random" departSpeed="10" laneChangeMode="5242898" />
    <vehicle id="vehicle_238_gaussian" type="standard_car" route="W_to_E" depart="449" departLane="random" departSpeed="10" laneChangeMode="5242898" />
    <vehicle id="vehicle_475_rand" type="standard_car" route="W_to_S" depart="449" departLane="random" departSpeed="10" laneChangeMode="5242898" />
    <vehicle id="vehicle_518_rand" type="standard_car" route="E_to_W" depart="450" departLane="random" departSpeed="10" laneChangeMode="5242898" />
    <vehicle id="vehicle_97_gaussian" type="standard_car" route="W_to_E" depart="450" departLane="random" departSpeed="10" laneChangeMode="5242898" />
    <vehicle id="vehicle_280_gaussian" type="standard_car" route="W_to_E" depart="452" departLane="random" departSpeed="10" laneChangeMode="5242898" />
    <vehicle id="vehicle_365_gaussian" type="standard_car" route="W_to_E" depart="454" departLane="random" departSpeed="10" laneChangeMode="5242898" />
    <vehicle id="vehicle_594_rand" type="standard_car" route="S_to_N" depart="455" departLane="random" departSpeed="10" laneChangeMode="5242898" />
    <vehicle id="vehicle_182_rand" type="standard_car" route="S_to_N" depart="456" departLane="random" departSpeed="10" laneChangeMode="5242898" />
    <vehicle id="vehicle_237_gaussian" type="standard_car" route="W_to_E" depart="457" departLane="random" departSpeed="10" laneChangeMode="5242898" />
    <vehicle id="vehicle_30_gaussian" type="standard_car" route="E_to_W" depart="458" departLane="random" departSpeed="10" laneChangeMode="5242898" />
    <vehicle id="vehicle_216_gaussian" type="standard_car" route="W_to_E" depart="460" departLane="random" departSpeed="10" laneChangeMode="5242898" />
    <vehicle id="vehicle_271_rand" type="standard_car" route="E_to_W" depart="464" departLane="random" departSpeed="10" laneChangeMode="5242898" />
    <vehicle id="vehicle_381_gaussian" type="standard_car" route="W_to_N" depart="464" departLane="random" departSpeed="10" laneChangeMode="5242898" />
    <vehicle id="vehicle_129_rand" type="standard_car" route="N_to_S" depart="465" departLane="random" departSpeed="10" laneChangeMode="5242898" />
    <vehicle id="vehicle_2_gaussian" type="standard_car" route="E_to_S" depart="465" departLane="random" departSpeed="10" laneChangeMode="5242898" />
    <vehicle id="vehicle_80_rand" type="standard_car" route="E_to_S" depart="465" departLane="random" departSpeed="10" laneChangeMode="5242898" />
    <vehicle id="vehicle_596_rand" type="standard_car" route="W_to_S" depart="469" departLane="random" departSpeed="10" laneChangeMode="5242898" />
    <vehicle id="vehicle_48_gaussian" type="standard_car" route="W_to_E" depart="472" departLane="random" departSpeed="10" laneChangeMode="5242898" />
    <vehicle id="vehicle_1_gaussian" type="standard_car" route="W_to_E" depart="475" departLane="random" departSpeed="10" laneChangeMode="5242898" />
    <vehicle id="vehicle_146_gaussian" type="standard_car" route="W_to_E" depart="476" departLane="random" departSpeed="10" laneChangeMode="5242898" />
    <vehicle id="vehicle_325_gaussian" type="standard_car" route="E_to_W" depart="477" departLane="random" departSpeed="10" laneChangeMode="5242898" />
    <vehicle id="vehicle_399_gaussian" type="standard_car" route="E_to_W" depart="477" departLane="random" departSpeed="10" laneChangeMode="5242898" />
    <vehicle id="vehicle_87_rand" type="standard_car" route="W_to_E" depart="478" departLane="random" departSpeed="10" laneChangeMode="5242898" />
    <vehicle id="vehicle_342_gaussian" type="standard_car" route="W_to_E" depart="479" departLane="random" departSpeed="10" laneChangeMode="5242898" />
    <vehicle id="vehicle_376_gaussian" type="standard_car" route="W_to_E" depart="479" departLane="random" departSpeed="10" laneChangeMode="5242898" />
    <vehicle id="vehicle_276_gaussian" type="standard_car" route="W_to_E" depart="481" departLane="random" departSpeed="10" laneChangeMode="5242898" />
    <vehicle id="vehicle_390_gaussian" type="standard_car" route="W_to_E" depart="481" departLane="random" departSpeed="10" laneChangeMode="5242898" />
    <vehicle id="vehicle_394_rand" type="standard_car" route="W_to_E" depart="481" departLane="random" departSpeed="10" laneChangeMode="5242898" />
    <vehicle id="vehicle_136_gaussian" type="standard_car" route="W_to_E" depart="485" departLane="random" departSpeed="10" laneChangeMode="5242898" />
    <vehicle id="vehicle_187_gaussian" type="standard_car" route="W_to_E" depart="485" departLane="random" departSpeed="10" laneChangeMode="5242898" />
    <vehicle id="vehicle_576_rand" type="standard_car" route="S_to_E" depart="485" departLane="random" departSpeed="10" laneChangeMode="5242898" />
    <vehicle id="vehicle_282_gaussian" type="standard_car" route="W_to_E" depart="486" departLane="random" departSpeed="10" laneChangeMode="5242898" />
    <vehicle id="vehicle_308_gaussian" type="standard_car" route="W_to_S" depart="492" departLane="random" departSpeed="10" laneChangeMode="5242898" />
    <vehicle id="vehicle_134_gaussian" type="standard_car" route="W_to_E" depart="493" departLane="random" departSpeed="10" laneChangeMode="5242898" />
    <vehicle id="vehicle_21_gaussian" type="standard_car" route="W_to_E" depart="493" departLane="random" departSpeed="10" laneChangeMode="5242898" />
    <vehicle id="vehicle_148_gaussian" type="standard_car" route="W_to_E" depart="498" departLane="random" departSpeed="10" laneChangeMode="5242898" />
    <vehicle id="vehicle_73_gaussian" type="standard_car" route="W_to_E" depart="498" departLane="random" departSpeed="10" laneChangeMode="5242898" />
    <vehicle id="vehicle_200_gaussian" type="standard_car" route="W_to_E" depart="500" departLane="random" departSpeed="10" laneChangeMode="5242898" />
    <vehicle id="vehicle_239_gaussian" type="standard_car" route="E_to_N" depart="501" departLane="random" departSpeed="10" laneChangeMode="5242898" />
    <vehicle id="vehicle_299_gaussian" type="standard_car" route="W_to_E" depart="501" departLane="random" departSpeed="10" laneChangeMode="5242898" />
    <vehicle id="vehicle_176_gaussian" type="standard_car" route="E_to_W" depart="504" departLane="random" departSpeed="10" laneChangeMode="5242898" />
    <vehicle id="vehicle_171_gaussian" type="standard_car" route="W_to_N" depart="506" departLane="random" departSpeed="10" laneChangeMode="5242898" />
    <vehicle id="vehicle_61_gaussian" type="standard_car" route="E_to_W" depart="506" departLane="random" departSpeed="10" laneChangeMode="5242898" />
    <vehicle id="vehicle_119_gaussian" type="standard_car" route="W_to_E" depart="507" departLane="random" departSpeed="10" laneChangeMode="5242898" />
    <vehicle id="vehicle_241_gaussian" type="standard_car" route="W_to_E" depart="507" departLane="random" departSpeed="10" laneChangeMode="5242898" />
    <vehicle id="vehicle_292_rand" type="standard_car" route="N_to_S" depart="507" departLane="random" departSpeed="10" laneChangeMode="5242898" />
    <vehicle id="vehicle_236_gaussian" type="standard_car" route="W_to_E" depart="508" departLane="random" departSpeed="10" laneChangeMode="5242898" />
    <vehicle id="vehicle_377_gaussian" type="standard_car" route="W_to_E" depart="508" departLane="random" departSpeed="10" laneChangeMode="5242898" />
    <vehicle id="vehicle_81_gaussian" type="standard_car" route="E_to_S" depart="508" departLane="random" departSpeed="10" laneChangeMode="5242898" />
    <vehicle id="vehicle_22_gaussian" type="standard_car" route="E_to_W" depart="509" departLane="random" departSpeed="10" laneChangeMode="5242898" />
    <vehicle id="vehicle_25_gaussian" type="standard_car" route="W_to_S" depart="509" departLane="random" departSpeed="10" laneChangeMode="5242898" />
    <vehicle id="vehicle_315_gaussian" type="standard_car" route="W_to_E" depart="511" departLane="random" departSpeed="10" laneChangeMode="5242898" />
    <vehicle id="vehicle_426_rand" type="standard_car" route="N_to_W" depart="511" departLane="random" departSpeed="10" laneChangeMode="5242898" />
    <vehicle id="vehicle_194_gaussian" type="standard_car" route="W_to_S" depart="514" departLane="random" departSpeed="10" laneChangeMode="5242898" />
    <vehicle id="vehicle_157_gaussian" type="standard_car" route="W_to_E" depart="515" departLane="random" departSpeed="10" laneChangeMode="5242898" />
    <vehicle id="vehicle_345_gaussian" type="standard_car" route="E_to_W" depart="518" departLane="random" departSpeed="10" laneChangeMode="5242898" />
    <vehicle id="vehicle_10_gaussian" type="standard_car" route="W_to_E" depart="520" departLane="random" departSpeed="10" laneChangeMode="5242898" />
    <vehicle id="vehicle_350_gaussian" type="standard_car" route="W_to_E" depart="520" departLane="random" departSpeed="10" laneChangeMode="5242898" />
    <vehicle id="vehicle_267_gaussian" type="standard_car" route="W_to_E" depart="521" departLane="random" departSpeed="10" laneChangeMode="5242898" />
    <vehicle id="vehicle_242_gaussian" type="standard_car" route="E_to_W" depart="522" departLane="random" departSpeed="10" laneChangeMode="5242898" />
    <vehicle id="vehicle_204_gaussian" type="standard_car" route="W_to_E" depart="531" departLane="random" departSpeed="10" laneChangeMode="5242898" />
    <vehicle id="vehicle_225_gaussian" type="standard_car" route="W_to_S" depart="532" departLane="random" departSpeed="10" laneChangeMode="5242898" />
    <vehicle id="vehicle_44_gaussian" type="standard_car" route="E_to_W" depart="532" departLane="random" departSpeed="10" laneChangeMode="5242898" />
    <vehicle id="vehicle_98_gaussian" type="standard_car" route="E_to_W" depart="534" departLane="random" departSpeed="10" laneChangeMode="5242898" />
    <vehicle id="vehicle_292_gaussian" type="standard_car" route="W_to_E" depart="535" departLane="random" departSpeed="10" laneChangeMode="5242898" />
    <vehicle id="vehicle_305_gaussian" type="standard_car" route="E_to_W" depart="535" departLane="random" departSpeed="10" laneChangeMode="5242898" />
    <vehicle id="vehicle_91_rand" type="standard_car" route="W_to_E" depart="535" departLane="random" departSpeed="10" laneChangeMode="5242898" />
    <vehicle id="vehicle_193_rand" type="standard_car" route="W_to_E" depart="536" departLane="random" departSpeed="10" laneChangeMode="5242898" />
    <vehicle id="vehicle_302_gaussian" type="standard_car" route="W_to_E" depart="537" departLane="random" departSpeed="10" laneChangeMode="5242898" />
    <vehicle id="vehicle_227_rand" type="standard_car" route="N_to_E" depart="539" departLane="random" departSpeed="10" laneChangeMode="5242898" />
    <vehicle id="vehicle_320_rand" type="standard_car" route="E_to_N" depart="543" departLane="random" departSpeed="10" laneChangeMode="5242898" />
    <vehicle id="vehicle_49_gaussian" type="standard_car" route="E_to_N" depart="543" departLane="random" departSpeed="10" laneChangeMode="5242898" />
    <vehicle id="vehicle_224_gaussian" type="standard_car" route="W_to_E" depart="545" departLane="random" departSpeed="10" laneChangeMode="5242898" />
    <vehicle id="vehicle_306_gaussian" type="standard_car" route="W_to_E" depart="546" departLane="random" departSpeed="10" laneChangeMode="5242898" />
    <vehicle id="vehicle_100_gaussian" type="standard_car" route="W_to_S" depart="547" departLane="random" departSpeed="10" laneChangeMode="5242898" />
    <vehicle id="vehicle_93_gaussian" type="standard_car" route="W_to_E" depart="547" departLane="random" departSpeed="10" laneChangeMode="5242898" />