                
<routes>
            <vType accel="1.0" decel="4.5" id="standard_car" length="5.0" minGap="2.5" maxSpeed="25" sigma="0.5" laneChangeMode="5242898"/>
            
            <!-- route definition (the car route) -->

            <route id="W_to_N" edges="W_in N_out"/>
            <route id="W_to_E" edges="W_in E_out"/>
            <route id="W_to_S" edges="W_in S_out"/>
            <route id="N_to_W" edges="N_in W_out"/>
            <route id="N_to_E" edges="N_in E_out"/>
            <route id="N_to_S" edges="N_in S_out"/>
            <route id="E_to_W" edges="E_in W_out"/>
            <route id="E_to_N" edges="E_in N_out"/>
            <route id="E_to_S" edges="E_in S_out"/>
            <route id="S_to_W" edges="S_in W_out"/>
            <route id="S_to_N" edges="S_in N_out"/>
            <route id="S_to_E" edges="S_in E_out"/>
    <vehicle id="vehicle_821" type="standard_car" route="E_to_N" depart="6.0" departLane="random" departSpeed="10" laneChangeMode="5242898" />
    <vehicle id="vehicle_427" type="standard_car" route="W_to_E" depart="18.0" departLane="random" departSpeed="10" laneChangeMode="5242898" />
    <vehicle id="vehicle_451" type="standard_car" route="S_to_N" depart="32.0" departLane="random" departSpeed="10" laneChangeMode="5242898" />
    <vehicle id="vehicle_215" type="standard_car" route="W_to_E" depart="36.0" departLane="random" departSpeed="10" laneChangeMode="5242898" />
    <vehicle id="vehicle_830" type="standard_car" route="S_to_N" depart="37.0" departLane="random" departSpeed="10" laneChangeMode="5242898" />
    <vehicle id="vehicle_646" type="standard_car" route="W_to_N" depart="49.0" departLane="random" departSpeed="10" laneChangeMode="5242898" />
    <vehicle id="vehicle_212" type="standard_car" route="S_to_N" depart="65.0" departLane="random" departSpeed="10" laneChangeMode="5242898" />
    <vehicle id="vehicle_484" type="standard_car" route="N_to_W" depart="68.0" departLane="random" departSpeed="10" laneChangeMode="5242898" />
    <vehicle id="vehicle_736" type="standard_car" route="S_to_E" depart="69.0" departLane="random" departSpeed="10" laneChangeMode="5242898" />
    <vehicle id="vehicle_950" type="standard_car" route="S_to_E" depart="70.0" departLane="random" departSpeed="10" laneChangeMode="5242898" />
    <vehicle id="vehicle_395" type="standard_car" route="W_to_E" depart="77.0" departLane="random" departSpeed="10" laneChangeMode="5242898" />
    <vehicle id="vehicle_718" type="standard_car" route="E_to_W" depart="80.0" departLane="random" departSpeed="10" laneChangeMode="5242898" />
    <vehicle id="vehicle_163" type="standard_car" route="E_to_S" depart="88.0" departLane="random" departSpeed="10" laneChangeMode="5242898" />
    <vehicle id="vehicle_587" type="standard_car" route="E_to_W" depart="90.0" departLane="random" departSpeed="10" laneChangeMode="5242898" />
    <vehicle id="vehicle_217" type="standard_car" route="S_to_E" depart="91.0" departLane="random" departSpeed="10" laneChangeMode="5242898" />
    <vehicle id="vehicle_991" type="standard_car" route="E_to_W" depart="92.0" departLane="random" departSpeed="10" laneChangeMode="5242898" />
    <vehicle id="vehicle_465" type="standard_car" route="S_to_N" depart="95.0" departLane="random" departSpeed="10" laneChangeMode="5242898" />
    <vehicle id="vehicle_624" type="standard_car" route="E_to_W" depart="100.0" departLane="random" departSpeed="10" laneChangeMode="5242898" />
    <vehicle id="vehicle_560" type="standard_car" route="S_to_N" depart="105.0" departLane="random" departSpeed="10" laneChangeMode="5242898" />
    <vehicle id="vehicle_211" type="standard_car" route="S_to_N" depart="110.0" departLane="random" departSpeed="10" laneChangeMode="5242898" />
    <vehicle id="vehicle_459" type="standard_car" route="N_to_S" depart="110.0" departLane="random" departSpeed="10" laneChangeMode="5242898" />
    <vehicle id="vehicle_198" type="standard_car" route="E_to_W" depart="112.0" departLane="random" departSpeed="10" laneChangeMode="5242898" />
    <vehicle id="vehicle_200" type="standard_car" route="W_to_E" depart="115.0" departLane="random" departSpeed="10" laneChangeMode="5242898" />
    <vehicle id="vehicle_148" type="standard_car" route="W_to_E" depart="116.0" departLane="random" departSpeed="10" laneChangeMode="5242898" />
    <vehicle id="vehicle_274" type="standard_car" route="E_to_W" depart="121.0" departLane="random" departSpeed="10" laneChangeMode="5242898" />
    <vehicle id="vehicle_975" type="standard_car" route="E_to_N" depart="121.0" departLane="random" departSpeed="10" laneChangeMode="5242898" />
    <vehicle id="vehicle_704" type="standard_car" route="N_to_W" depart="122.0" departLane="random" departSpeed="10" laneChangeMode="5242898" />
    <vehicle id="vehicle_597" type="standard_car" route="S_to_N" depart="123.0" departLane="random" departSpeed="10" laneChangeMode="5242898" />
    <vehicle id="vehicle_861" type="standard_car" route="W_to_N" depart="129.0" departLane="random" departSpeed="10" laneChangeMode="5242898" />
    <vehicle id="vehicle_932" type="standard_car" route="E_to_W" depart="129.0" departLane="random" departSpeed="10" laneChangeMode="5242898" />
    <vehicle id="vehicle_807" type="standard_car" route="N_to_W" depart="133.0" departLane="random" departSpeed="10" laneChangeMode="5242898" />
    <vehicle id="vehicle_314" type="standard_car" route="S_to_N" depart="135.0" departLane="random" departSpeed="10" laneChangeMode="5242898" />
    <vehicle id="vehicle_768" type="standard_car" route="W_to_E" depart="137.0" departLane="random" departSpeed="10" laneChangeMode="5242898" />
    <vehicle id="vehicle_29" type="standard_car" route="S_to_N" depart="140.0" departLane="random" departSpeed="10" laneChangeMode="5242898" />
    <vehicle id="vehicle_696" type="standard_car" route="N_to_W" depart="140.0" departLane="random" departSpeed="10" laneChangeMode="5242898" />
    <vehicle id="vehicle_319" type="standard_car" route="W_to_E" depart="141.0" departLane="random" departSpeed="10" laneChangeMode="5242898" />
    <vehicle id="vehicle_629" type="standard_car" route="E_to_W" depart="143.0" departLane="random" departSpeed="10" laneChangeMode="5242898" />
    <vehicle id="vehicle_483" type="standard_car" route="S_to_N" depart="144.0" departLane="random" departSpeed="10" laneChangeMode="5242898" />
    <vehicle id="vehicle_672" type="standard_car" route="N_to_W" depart="144.0" departLane="random" departSpeed="10" laneChangeMode="5242898" />
    <vehicle id="vehicle_771" type="standard_car" route="E_to_W" depart="146.0" departLane="random" departSpeed="10" laneChangeMode="5242898" />
    <vehicle id="vehicle_843" type="standard_car" route="W_to_E" depart="148.0" departLane="random" departSpeed="10" laneChangeMode="5242898" />
    <vehicle id="vehicle_580" type="standard_car" route="E_to_W" depart="149.0" departLane="random" departSpeed="10" laneChangeMode="5242898" />
    <vehicle id="vehicle_965" type="standard_car" route="W_to_E" depart="149.0" departLane="random" departSpeed="10" laneChangeMode="5242898" />
    <vehicle id="vehicle_102" type="standard_car" route="W_to_E" depart="151.0" departLane="random" departSpeed="10" laneChangeMode="5242898" />
    <vehicle id="vehicle_603" type="standard_car" route="W_to_E" depart="151.0" departLane="random" departSpeed="10" laneChangeMode="5242898" />
    <vehicle id="vehicle_690" type="standard_car" route="N_to_S" depart="151.0" departLane="random" departSpeed="10" laneChangeMode="5242898" />
    <vehicle id="vehicle_295" type="standard_car" route="S_to_N" depart="153.0" departLane="random" departSpeed="10" laneChangeMode="5242898" />
    <vehicle id="vehicle_638" type="standard_car" route="S_to_N" depart="153.0" departLane="random" departSpeed="10" laneChangeMode="5242898" />
    <vehicle id="vehicle_567" type="standard_car" route="E_to_W" depart="158.0" departLane="random" departSpeed="10" laneChangeMode="5242898" />
    <vehicle id="vehicle_64" type="standard_car" route="E_to_W" depart="159.0" departLane="random" departSpeed="10" laneChangeMode="5242898" />
    <vehicle id="vehicle_885" type="standard_car" route="W_to_E" depart="159.0" departLane="random" departSpeed="10" laneChangeMode="5242898" />
    <vehicle id="vehicle_368" type="standard_car" route="E_to_W" depart="160.0" departLane="random" departSpeed="10" laneChangeMode="5242898" />
    <vehicle id="vehicle_28" type="standard_car" route="N_to_S" depart="168.0" departLane="random" departSpeed="10" laneChangeMode="5242898" />
    <vehicle id="vehicle_2" type="standard_car" route="E_to_W" depart="169.0" departLane="random" departSpeed="10" laneChangeMode="5242898" />
    <vehicle id="vehicle_642" type="standard_car" route="E_to_W" depart="170.0" departLane="random" departSpeed="10" laneChangeMode="5242898" />
    <vehicle id="vehicle_591" type="standard_car" route="E_to_W" depart="171.0" departLane="random" departSpeed="10" laneChangeMode="5242898" />
    <vehicle id="vehicle_261" type="standard_car" route="E_to_S" depart="172.0" departLane="random" departSpeed="10" laneChangeMode="5242898" />
    <vehicle id="vehicle_767" type="standard_car" route="S_to_N" depart="172.0" departLane="random" departSpeed="10" laneChangeMode="5242898" />
    <vehicle id="vehicle_565" type="standard_car" route="W_to_S" depart="174.0" departLane="random" departSpeed="10" laneChangeMode="5242898" />
    <vehicle id="vehicle_436" type="standard_car" route="S_to_N" depart="177.0" departLane="random" departSpeed="10" laneChangeMode="5242898" />
    <vehicle id="vehicle_155" type="standard_car" route="N_to_S" depart="178.0" departLane="random" departSpeed="10" laneChangeMode="5242898" />
    <vehicle id="vehicle_251" type="standard_car" route="S_to_N" depart="178.0" departLane="random" departSpeed="10" laneChangeMode="5242898" />
    <vehicle id="vehicle_328" type="standard_car" route="E_to_W" depart="181.0" departLane="random" departSpeed="10" laneChangeMode="5242898" />
    <vehicle id="vehicle_570" type="standard_car" route="N_to_E" depart="182.0" departLane="random" departSpeed="10" laneChangeMode="5242898" />
    <vehicle id="vehicle_81" type="standard_car" route="E_to_W" depart="185.0" departLane="random" departSpeed="10" laneChangeMode="5242898" />
    <vehicle id="vehicle_762" type="standard_car" route="S_to_E" depart="186.0" departLane="random" departSpeed="10" laneChangeMode="5242898" />
    <vehicle id="vehicle_763" type="standard_car" route="W_to_E" depart="186.0" departLane="random" departSpeed="10" laneChangeMode="5242898" />
    <vehicle id="vehicle_134" type="standard_car" route="N_to_S" depart="188.0" departLane="random" departSpeed="10" laneChangeMode="5242898" />
    <vehicle id="vehicle_939" type="standard_car" route="S_to_N" depart="188.0" departLane="random" departSpeed="10" laneChangeMode="5242898" />
    <vehicle id="vehicle_798" type="standard_car" route="S_to_N" depart="189.0" departLane="random" departSpeed="10" laneChangeMode="5242898" />
    <vehicle id="vehicle_191" type="standard_car" route="W_to_E" depart="190.0" departLane="random" departSpeed="10" laneChangeMode="5242898" />
    <vehicle id="vehicle_194" type="standard_car" route="W_to_E" depart="192.0" departLane="random" departSpeed="10" laneChangeMode="5242898" />
    <vehicle id="vehicle_386" type="standard_car" route="N_to_S" depart="192.0" departLane="random" departSpeed="10" laneChangeMode="5242898" />
    <vehicle id="vehicle_618" type="standard_car" route="W_to_S" depart="192.0" departLane="random" departSpeed="10" laneChangeMode="5242898" />
    <vehicle id="vehicle_541" type="standard_car" route="W_to_E" depart="196.0" departLane="random" departSpeed="10" laneChangeMode="5242898" />
    <vehicle id="vehicle_137" type="standard_car" route="S_to_N" depart="198.0" departLane="random" departSpeed="10" laneChangeMode="5242898" />
    <vehicle id="vehicle_848" type="standard_car" route="N_to_S" depart="198.0" departLane="random" departSpeed="10" laneChangeMode="5242898" />
    <vehicle id="vehicle_312" type="standard_car" route="N_to_S" depart="201.0" departLane="random" departSpeed="10" laneChangeMode="5242898" />
    <vehicle id="vehicle_566" type="standard_car" route="E_to_W" depart="203.0" departLane="random" departSpeed="10" laneChangeMode="5242898" />
    <vehicle id="vehicle_867" type="standard_car" route="E_to_S" depart="203.0" departLane="random" departSpeed="10" laneChangeMode="5242898" />
    <vehicle id="vehicle_297" type="standard_car" route="N_to_S" depart="204.0" departLane="random" departSpeed="10" laneChangeMode="5242898" />
    <vehicle id="vehicle_532" type="standard_car" route="W_to_E" depart="204.0" departLane="random" departSpeed="10" laneChangeMode="5242898" />
    <vehicle id="vehicle_828" type="standard_car" route="S_to_N" depart="204.0" departLane="random" departSpeed="10" laneChangeMode="5242898" />
    <vehicle id="vehicle_744" type="standard_car" route="S_to_N" depart="205.0" departLane="random" departSpeed="10" laneChangeMode="5242898" />
    <vehicle id="vehicle_425" type="standard_car" route="N_to_S" depart="206.0" departLane="random" departSpeed="10" laneChangeMode="5242898" />
    <vehicle id="vehicle_990" type="standard_car" route="N_to_S" depart="206.0" departLane="random" departSpeed="10" laneChangeMode="5242898" />
    <vehicle id="vehicle_101" type="standard_car" route="E_to_W" depart="207.0" departLane="random" departSpeed="10" laneChangeMode="5242898" />
    <vehicle id="vehicle_536" type="standard_car" route="W_to_E" depart="208.0" departLane="random" departSpeed="10" laneChangeMode="5242898" />
    <vehicle id="vehicle_935" type="standard_car" route="E_to_S" depart="208.0" departLane="random" departSpeed="10" laneChangeMode="5242898" />
    <vehicle id="vehicle_324" type="standard_car" route="E_to_W" depart="209.0" departLane="random" departSpeed="10" laneChangeMode="5242898" />
    <vehicle id="vehicle_78" type="standard_car" route="S_to_N" depart="209.0" departLane="random" departSpeed="10" laneChangeMode="5242898" />
    <vehicle id="vehicle_5" type="standard_car" route="W_to_N" depart="211.0" departLane="random" departSpeed="10" laneChangeMode="5242898" />
    <vehicle id="vehicle_364" type="standard_car" route="W_to_E" depart="212.0" departLane="random" departSpeed="10" laneChangeMode="5242898" />
    <vehicle id="vehicle_221" type="standard_car" route="S_to_N" depart="216.0" departLane="random" departSpeed="10" laneChangeMode="5242898" />
    <vehicle id="vehicle_144" type="standard_car" route="E_to_S" depart="218.0" departLane="random" departSpeed="10" laneChangeMode="5242898" />
    <vehicle id="vehicle_146" type="standard_car" route="E_to_W" depart="219.0" departLane="random" departSpeed="10" laneChangeMode="5242898" />
    <vehicle id="vehicle_154" type="standard_car" route="N_to_W" depart="220.0" departLane="random" departSpeed="10" laneChangeMode="5242898" />
    <vehicle id="vehicle_302" type="standard_car" route="W_to_E" depart="220.0" departLane="random" departSpeed="10" laneChangeMode="5242898" />
    <vehicle id="vehicle_693" type="standard_car" route="N_to_S" depart="220.0" departLane="random" departSpeed="10" laneChangeMode="5242898" />
    <vehicle id="vehicle_814" type="standard_car" route="S_to_W" depart="220.0" departLane="random" departSpeed="10" laneChangeMode="5242898" />
    <vehicle id="vehicle_490" type="standard_car" route="N_to_S" depart="221.0" departLane="random" departSpeed="10" laneChangeMode="5242898" />
    <vehicle id="vehicle_260" type="standard_car" route="S_to_N" depart="223.0" departLane="random" departSpeed="10" laneChangeMode="5242898" />
    <vehicle id="vehicle_397" type="standard_car" route="S_to_N" depart="224.0" departLane="random" departSpeed="10" laneChangeMode="5242898" />
    <vehicle id="vehicle_542" type="standard_car" route="E_to_W" depart="224.0" departLane="random" departSpeed="10" laneChangeMode="5242898" />
    <vehicle id="vehicle_508" type="standard_car" route="S_to_N" depart="225.0" departLane="random" departSpeed="10" laneChangeMode="5242898" />
    <vehicle id="vehicle_16" type="standard_car" route="N_to_S" depart="226.0" departLane="random" departSpeed="10" laneChangeMode="5242898" />
    <vehicle id="vehicle_730" type="standard_car" route="S_to_W" depart="226.0" departLane="random" departSpeed="10" laneChangeMode="5242898" />
    <vehicle id="vehicle_281" type="standard_car" route="N_to_S" depart="227.0" departLane="random" departSpeed="10" laneChangeMode="5242898" />
    <vehicle id="vehicle_964" type="standard_car" route="W_to_S" depart="228.0" departLane="random" departSpeed="10" laneChangeMode="5242898" />
    <vehicle id="vehicle_790" type="standard_car" route="S_to_N" depart="230.0" departLane="random" departSpeed="10" laneChangeMode="5242898" />
    <vehicle id="vehicle_851" type="standard_car" route="S_to_E" depart="230.0" departLane="random" departSpeed="10" laneChangeMode="5242898" />
    <vehicle id="vehicle_879" type="standard_car" route="E_to_N" depart="230.0" departLane="random" departSpeed="10" laneChangeMode="5242898" />
    <vehicle id="vehicle_52" type="standard_car" route="E_to_W" depart="231.0" departLane="random" departSpeed="10" laneChangeMode="5242898" />
    <vehicle id="vehicle_577" type="standard_car" route="N_to_S" depart="232.0" departLane="random" departSpeed="10" laneChangeMode="5242898" />
    <vehicle id="vehicle_203" type="standard_car" route="S_to_N" depart="233.0" departLane="random" departSpeed="10" laneChangeMode="5242898" />
    <vehicle id="vehicle_611" type="standard_car" route="W_to_N" depart="233.0" departLane="random" departSpeed="10" laneChangeMode="5242898" />
    <vehicle id="vehicle_678" type="standard_car" route="S_to_N" depart="236.0" departLane="random" departSpeed="10" laneChangeMode="5242898" />
    <vehicle id="vehicle_455" type="standard_car" route="W_to_E" depart="237.0" departLane="random" departSpeed="10" laneChangeMode="5242898" />
    <vehicle id="vehicle_429" type="standard_car" route="E_to_S" depart="238.0" departLane="random" departSpeed="10" laneChangeMode="5242898" />
    <vehicle id="vehicle_691" type="standard_car" route="N_to_E" depart="239.0" departLane="random" departSpeed="10" laneChangeMode="5242898" />
    <vehicle id="vehicle_739" type="standard_car" route="E_to_W" depart="241.0" departLane="random" departSpeed="10" laneChangeMode="5242898" />
    <vehicle id="vehicle_742" type="standard_car" route="N_to_S" depart="241.0" departLane="random" departSpeed="10" laneChangeMode="5242898" />
    <vehicle id="vehicle_926" type="standard_car" route="N_to_S" depart="243.0" departLane="random" departSpeed="10" laneChangeMode="5242898" />
    <vehicle id="vehicle_752" type="standard_car" route="N_to_S" depart="244.0" departLane="random" departSpeed="10" laneChangeMode="5242898" />
    <vehicle id="vehicle_808" type="standard_car" route="S_to_N" depart="244.0" departLane="random" departSpeed="10" laneChangeMode="5242898" />
    <vehicle id="vehicle_213" type="standard_car" route="W_to_S" depart="245.0" departLane="random" departSpeed="10" laneChangeMode="5242898" />
    <vehicle id="vehicle_853" type="standard_car" route="S_to_W" depart="245.0" departLane="random" departSpeed="10" laneChangeMode="5242898" />
    <vehicle id="vehicle_44" type="standard_car" route="N_to_W" depart="246.0" departLane="random" departSpeed="10" laneChangeMode="5242898" />
    <vehicle id="vehicle_753" type="standard_car" route="N_to_W" depart="248.0" departLane="random" departSpeed="10" laneChangeMode="5242898" />
    <vehicle id="vehicle_501" type="standard_car" route="N_to_S" depart="249.0" departLane="random" departSpeed="10" laneChangeMode="5242898" />
    <vehicle id="vehicle_866" type="standard_car" route="N_to_S" depart="251.0" departLane="random" departSpeed="10" laneChangeMode="5242898" />
    <vehicle id="vehicle_996" type="standard_car" route="W_to_E" depart="252.0" departLane="random" departSpeed="10" laneChangeMode="5242898" />
    <vehicle id="vehicle_422" type="standard_car" route="S_to_N" depart="253.0" departLane="random" departSpeed="10" laneChangeMode="5242898" />
    <vehicle id="vehicle_606" type="standard_car" route="S_to_N" depart="254.0" departLane="random" departSpeed="10" laneChangeMode="5242898" />
    <vehicle id="vehicle_951" type="standard_car" route="E_to_W" depart="254.0" departLane="random" departSpeed="10" laneChangeMode="5242898" />
    <vehicle id="vehicle_783" type="standard_car" route="W_to_E" depart="256.0" departLane="random" departSpeed="10" laneChangeMode="5242898" />
    <vehicle id="vehicle_666" type="standard_car" route="S_to_N" depart="257.0" departLane="random" departSpeed="10" laneChangeMode="5242898" />
    <vehicle id="vehicle_520" type="standard_car" route="E_to_W" depart="258.0" departLane="random" departSpeed="10" laneChangeMode="5242898" />
    <vehicle id="vehicle_893" type="standard_car" route="S_to_E" depart="262.0" departLane="random" departSpeed="10" laneChangeMode="5242898" />
    <vehicle id="vehicle_190" type="standard_car" route="S_to_N" depart="263.0" departLane="random" departSpeed="10" laneChangeMode="5242898" />
    <vehicle id="vehicle_846" type="standard_car" route="S_to_N" depart="270.0" departLane="random" departSpeed="10" laneChangeMode="5242898" />
    <vehicle id="vehicle_311" type="standard_car" route="E_to_W" depart="271.0" departLane="random" departSpeed="10" laneChangeMode="5242898" />
    <vehicle id="vehicle_492" type="standard_car" route="W_to_E" depart="271.0" departLane="random" departSpeed="10" laneChangeMode="5242898" />
    <vehicle id="vehicle_375" type="standard_car" route="N_to_S" depart="272.0" departLane="random" departSpeed="10" laneChangeMode="5242898" />
    <vehicle id="vehicle_62" type="standard_car" route="N_to_W" depart="272.0" departLane="random" departSpeed="10" laneChangeMode="5242898" />
    <vehicle id="vehicle_415" type="standard_car" route="E_to_S" depart="274.0" departLane="random" departSpeed="10" laneChangeMode="5242898" />
    <vehicle id="vehicle_738" type="standard_car" route="N_to_S" depart="276.0" departLane="random" departSpeed="10" laneChangeMode="5242898" />
    <vehicle id="vehicle_982" type="standard_car" route="W_to_S" depart="277.0" departLane="random" departSpeed="10" laneChangeMode="5242898" />
    <vehicle id="vehicle_984" type="standard_car" route="N_to_S" depart="278.0" departLane="random" departSpeed="10" laneChangeMode="5242898" />
    <vehicle id="vehicle_113" type="standard_car" route="S_to_W" depart="280.0" departLane="random" departSpeed="10" laneChangeMode="5242898" />
    <vehicle id="vehicle_257" type="standard_car" route="E_to_N" depart="280.0" departLane="random" departSpeed="10" laneChangeMode="5242898" />
    <vehicle id="vehicle_892" type="standard_car" route="N_to_S" depart="281.0" departLane="random" departSpeed="10" laneChangeMode="5242898" />
    <vehicle id="vehicle_59" type="standard_car" route="N_to_S" depart="282.0" departLane="random" departSpeed="10" laneChangeMode="5242898" />
    <vehicle id="vehicle_558" type="standard_car" route="N_to_S" depart="288.0" departLane="random" departSpeed="10" laneChangeMode="5242898" />
    <vehicle id="vehicle_313" type="standard_car" route="S_to_N" depart="289.0" departLane="random" departSpeed="10" laneChangeMode="5242898" />
    <vehicle id="vehicle_340" type="standard_car" route="S_to_N" depart="289.0" departLane="random" departSpeed="10" laneChangeMode="5242898" />
    <vehicle id="vehicle_588" type="standard_car" route="E_to_W" depart="290.0" departLane="random" departSpeed="10" laneChangeMode="5242898" />
    <vehicle id="vehicle_23" type="standard_car" route="E_to_W" depart="291.0" departLane="random" departSpeed="10" laneChangeMode="5242898" />
    <vehicle id="vehicle_934" type="standard_car" route="E_to_W" depart="292.0" departLane="random" departSpeed="10" laneChangeMode="5242898" />
    <vehicle id="vehicle_149" type="standard_car" route="W_to_E" depart="293.0" departLane="random" departSpeed="10" laneChangeMode="5242898" />
    <vehicle id="vehicle_231" type="standard_car" route="S_to_N" depart="293.0" departLane="random" departSpeed="10" laneChangeMode="5242898" />
    <vehicle id="vehicle_987" type="standard_car" route="E_to_W" depart="293.0" departLane="random" departSpeed="10" laneChangeMode="5242898" />
    <vehicle id="vehicle_21" type="standard_car" route="W_to_E" depart="294.0" departLane="random" departSpeed="10" laneChangeMode="5242898" />
    <vehicle id="vehicle_283" type="standard_car" route="S_to_N" depart="294.0" departLane="random" departSpeed="10" laneChangeMode="5242898" />
    <vehicle id="vehicle_440" type="standard_car" route="W_to_S" depart="296.0" departLane="random" departSpeed="10" laneChangeMode="5242898" />
    <vehicle id="vehicle_802" type="standard_car" route="W_to_E" depart="296.0" departLane="random" departSpeed="10" laneChangeMode="5242898" />
    <vehicle id="vehicle_38" type="standard_car" route="W_to_E" depart="297.0" departLane="random" departSpeed="10" laneChangeMode="5242898" />
    <vehicle id="vehicle_452" type="standard_car" route="W_to_E" depart="297.0" departLane="random" departSpeed="10" laneChangeMode="5242898" />
    <vehicle id="vehicle_71" type="standard_car" route="N_to_S" depart="297.0" departLane="random" departSpeed="10" laneChangeMode="5242898" />
    <vehicle id="vehicle_555" type="standard_car" route="W_to_E" depart="300.0" departLane="random" departSpeed="10" laneChangeMode="5242898" />
    <vehicle id="vehicle_709" type="standard_car" route="S_to_N" depart="303.0" departLane="random" departSpeed="10" laneChangeMode="5242898" />
    <vehicle id="vehicle_185" type="standard_car" route="N_to_S" depart="304.0" departLane="random" departSpeed="10" laneChangeMode="5242898" />
    <vehicle id="vehicle_795" type="standard_car" route="E_to_W" depart="305.0" departLane="random" departSpeed="10" laneChangeMode="5242898" />
    <vehicle id="vehicle_239" type="standard_car" route="N_to_S" depart="307.0" departLane="random" departSpeed="10" laneChangeMode="5242898" />
    <vehicle id="vehicle_68" type="standard_car" route="W_to_E" depart="311.0" departLane="random" departSpeed="10" laneChangeMode="5242898" />
    <vehicle id="vehicle_864" type="standard_car" route="S_to_N" depart="311.0" departLane="random" departSpeed="10" laneChangeMode="5242898" />
    <vehicle id="vehicle_106" type="standard_car" route="E_to_W" depart="313.0" departLane="random" departSpeed="10" laneChangeMode="5242898" />
    <vehicle id="vehicle_131" type="standard_car" route="S_to_N" depart="313.0" departLane="random" departSpeed="10" laneChangeMode="5242898" />
    <vehicle id="vehicle_741" type="standard_car" route="S_to_N" depart="313.0" departLane="random" departSpeed="10" laneChangeMode="5242898" />
    <vehicle id="vehicle_37" type="standard_car" route="E_to_N" depart="315.0" departLane="random" departSpeed="10" laneChangeMode="5242898" />
    <vehicle id="vehicle_836" type="standard_car" route="W_to_E" depart="316.0" departLane="random" departSpeed="10" laneChangeMode="5242898" />
    <vehicle id="vehicle_428" type="standard_car" route="S_to_W" depart="317.0" departLane="random" departSpeed="10" laneChangeMode="5242898" />
    <vehicle id="vehicle_491" type="standard_car" route="W_to_S" depart="317.0" departLane="random" departSpeed="10" laneChangeMode="5242898" />
    <vehicle id="vehicle_655" type="standard_car" route="E_to_W" depart="317.0" departLane="random" departSpeed="10" laneChangeMode="5242898" />
    <vehicle id="vehicle_777" type="standard_car" route="S_to_N" depart="317.0" departLane="random" departSpeed="10" laneChangeMode="5242898" />
    <vehicle id="vehicle_957" type="standard_car" route="W_to_E" depart="318.0" departLane="random" departSpeed="10" laneChangeMode="5242898" />
    <vehicle id="vehicle_143" type="standard_car" route="W_to_E" depart="319.0" departLane="random" departSpeed="10" laneChangeMode="5242898" />
    <vehicle id="vehicle_912" type="standard_car" route="E_to_W" depart="320.0" departLane="random" departSpeed="10" laneChangeMode="5242898" />
    <vehicle id="vehicle_806" type="standard_car" route="N_to_S" depart="323.0" departLane="random" departSpeed="10" laneChangeMode="5242898" />
    <vehicle id="vehicle_647" type="standard_car" route="N_to_S" depart="324.0" departLane="random" departSpeed="10" laneChangeMode="5242898" />
    <vehicle id="vehicle_689" type="standard_car" route="S_to_N" depart="327.0" departLane="random" departSpeed="10" laneChangeMode="5242898" />
    <vehicle id="vehicle_389" type="standard_car" route="S_to_N" depart="328.0" departLane="random" departSpeed="10" laneChangeMode="5242898" />
    <vehicle id="vehicle_285" type="standard_car" route="N_to_E" depart="330.0" departLane="random" departSpeed="10" laneChangeMode="5242898" />
    <vehicle id="vehicle_641" type="standard_car" route="S_to_E" depart="330.0" departLane="random" departSpeed="10" laneChangeMode="5242898" />
    <vehicle id="vehicle_240" type="standard_car" route="N_to_S" depart="331.0" departLane="random" departSpeed="10" laneChangeMode="5242898" />
    <vehicle id="vehicle_563" type="standard_car" route="N_to_S" depart="331.0" departLane="random" departSpeed="10" laneChangeMode="5242898" />
    <vehicle id="vehicle_346" type="standard_car" route="N_to_S" depart="332.0" departLane="random" departSpeed="10" laneChangeMode="5242898" />
    <vehicle id="vehicle_840" type="standard_car" route="E_to_W" depart="332.0" departLane="random" departSpeed="10" laneChangeMode="5242898" />
    <vehicle id="vehicle_443" type="standard_car" route="E_to_W" depart="333.0" departLane="random" departSpeed="10" laneChangeMode="5242898" />
    <vehicle id="vehicle_685" type="standard_car" route="N_to_S" depart="334.0" departLane="random" departSpeed="10" laneChangeMode="5242898" />
    <vehicle id="vehicle_98" type="standard_car" route="N_to_S" depart="335.0" departLane="random" departSpeed="10" laneChangeMode="5242898" />