<?xml version="1.0" encoding="UTF-8"?>

<!-- generated on 2024-02-26 22:09:30 by Eclipse SUMO netedit Version 1.19.0
<configuration xmlns:xsi="http://www.w3.org/2001/XMLSchema-instance" xsi:noNamespaceSchemaLocation="http://sumo.dlr.de/xsd/neteditConfiguration.xsd">

    <input>
        <sumo-net-file value="C:\Users\MNL431\Desktop\traffic_light_control\intersection\cross.net.xml"/>
    </input>

    <output>
        <output-file value="C:\Users\MNL431\Desktop\traffic_light_control\intersection\cross.net.xml"/>
    </output>

    <processing>
        <geometry.min-radius.fix.railways value="false"/>
        <geometry.max-grade.fix value="false"/>
        <offset.disable-normalization value="true"/>
        <lefthand value="0"/>
    </processing>

    <junctions>
        <no-turnarounds value="true"/>
        <junctions.corner-detail value="5"/>
        <junctions.limit-turn-speed value="5.50"/>
        <rectangular-lane-cut value="0"/>
    </junctions>

    <pedestrian>
        <walkingareas value="0"/>
    </pedestrian>

</configuration>
-->

<net version="1.16" junctionCornerDetail="5" limitTurnSpeed="5.50" xmlns:xsi="http://www.w3.org/2001/XMLSchema-instance" xsi:noNamespaceSchemaLocation="http://sumo.dlr.de/xsd/net_file.xsd">

    <location netOffset="510.00,510.00" convBoundary="0.00,0.00,1000.00,1000.00" origBoundary="-510.00,-510.00,510.00,510.00" projParameter="!"/>

    <edge id=":0_0" function="internal">
        <lane id=":0_0_0" index="0" speed="6.51" length="9.03" shape="488.80,516.80 488.45,514.35 487.40,512.60 485.65,511.55 483.20,511.20"/>
    </edge>
    <edge id=":0_1" function="internal">
        <lane id=":0_1_0" index="0" speed="15.28" length="33.60" shape="488.80,516.80 488.80,483.20"/>
        <lane id=":0_1_1" index="1" speed="15.28" length="33.60" shape="492.00,516.80 492.00,483.20"/>
        <lane id=":0_1_2" index="2" speed="15.28" length="33.60" shape="495.20,516.80 495.20,483.20"/>
    </edge>
    <edge id=":0_4" function="internal">
        <lane id=":0_4_0" index="0" speed="11.36" length="29.67" shape="498.40,516.80 499.55,508.75 503.00,503.00 508.75,499.55 516.80,498.40"/>
    </edge>
    <edge id=":0_5" function="internal">
        <lane id=":0_5_0" index="0" speed="6.51" length="9.03" shape="516.80,511.20 514.35,511.55 512.60,512.60 511.55,514.35 511.20,516.80"/>
    </edge>
    <edge id=":0_6" function="internal">
        <lane id=":0_6_0" index="0" speed="15.28" length="33.60" shape="516.80,511.20 483.20,511.20"/>
        <lane id=":0_6_1" index="1" speed="15.28" length="33.60" shape="516.80,508.00 483.20,508.00"/>
        <lane id=":0_6_2" index="2" speed="15.28" length="33.60" shape="516.80,504.80 483.20,504.80"/>
    </edge>
    <edge id=":0_9" function="internal">
        <lane id=":0_9_0" index="0" speed="11.36" length="29.67" shape="516.80,501.60 508.75,500.45 503.00,497.00 499.55,491.25 498.40,483.20"/>
    </edge>
    <edge id=":0_10" function="internal">
        <lane id=":0_10_0" index="0" speed="6.51" length="9.03" shape="511.20,483.20 511.55,485.65 512.60,487.40 514.35,488.45 516.80,488.80"/>
    </edge>
    <edge id=":0_11" function="internal">
        <lane id=":0_11_0" index="0" speed="15.28" length="33.60" shape="511.20,483.20 511.20,516.80"/>
        <lane id=":0_11_1" index="1" speed="15.28" length="33.60" shape="508.00,483.20 508.00,516.80"/>
        <lane id=":0_11_2" index="2" speed="15.28" length="33.60" shape="504.80,483.20 504.80,516.80"/>
    </edge>
    <edge id=":0_14" function="internal">
        <lane id=":0_14_0" index="0" speed="11.36" length="29.67" shape="501.60,483.20 500.45,491.25 497.00,497.00 491.25,500.45 483.20,501.60"/>
    </edge>
    <edge id=":0_15" function="internal">
        <lane id=":0_15_0" index="0" speed="6.51" length="9.03" shape="483.20,488.80 485.65,488.45 487.40,487.40 488.45,485.65 488.80,483.20"/>
    </edge>
    <edge id=":0_16" function="internal">
        <lane id=":0_16_0" index="0" speed="15.28" length="33.60" shape="483.20,488.80 516.80,488.80"/>
        <lane id=":0_16_1" index="1" speed="15.28" length="33.60" shape="483.20,492.00 516.80,492.00"/>
        <lane id=":0_16_2" index="2" speed="15.28" length="33.60" shape="483.20,495.20 516.80,495.20"/>
    </edge>
    <edge id=":0_19" function="internal">
        <lane id=":0_19_0" index="0" speed="11.36" length="29.67" shape="483.20,498.40 491.25,499.55 497.00,503.00 500.45,508.75 501.60,516.80"/>
    </edge>

    <edge id="E_in" from="2" to="0" priority="78" length="500.00">
        <lane id="E_in_0" index="0" speed="19.44" length="500.00" shape="1000.00,511.20 516.80,511.20"/>
        <lane id="E_in_1" index="1" speed="19.44" length="500.00" shape="1000.00,508.00 516.80,508.00"/>
        <lane id="E_in_2" index="2" speed="19.44" length="500.00" shape="1000.00,504.80 516.80,504.80"/>
        <lane id="E_in_3" index="3" speed="19.44" length="500.00" shape="1000.00,501.60 516.80,501.60"/>
    </edge>
    <edge id="E_out" from="0" to="2" priority="46" length="500.00">
        <lane id="E_out_0" index="0" speed="11.11" length="500.00" shape="516.80,488.80 1000.00,488.80"/>
        <lane id="E_out_1" index="1" speed="11.11" length="500.00" shape="516.80,492.00 1000.00,492.00"/>
        <lane id="E_out_2" index="2" speed="11.11" length="500.00" shape="516.80,495.20 1000.00,495.20"/>
        <lane id="E_out_3" index="3" speed="11.11" length="500.00" shape="516.80,498.40 1000.00,498.40"/>
    </edge>
    <edge id="N_in" from="4" to="0" priority="78" length="500.00">
        <lane id="N_in_0" index="0" speed="19.44" length="500.00" shape="488.80,1000.00 488.80,516.80"/>
        <lane id="N_in_1" index="1" speed="19.44" length="500.00" shape="492.00,1000.00 492.00,516.80"/>
        <lane id="N_in_2" index="2" speed="19.44" length="500.00" shape="495.20,1000.00 495.20,516.80"/>
        <lane id="N_in_3" index="3" speed="19.44" length="500.00" shape="498.40,1000.00 498.40,516.80"/>
    </edge>
    <edge id="N_out" from="0" to="4" priority="46" length="500.00">
        <lane id="N_out_0" index="0" speed="11.11" length="500.00" shape="511.20,516.80 511.20,1000.00"/>
        <lane id="N_out_1" index="1" speed="11.11" length="500.00" shape="508.00,516.80 508.00,1000.00"/>
        <lane id="N_out_2" index="2" speed="11.11" length="500.00" shape="504.80,516.80 504.80,1000.00"/>
        <lane id="N_out_3" index="3" speed="11.11" length="500.00" shape="501.60,516.80 501.60,1000.00"/>
    </edge>
    <edge id="S_in" from="3" to="0" priority="78" length="500.00">
        <lane id="S_in_0" index="0" speed="19.44" length="500.00" shape="511.20,0.00 511.20,483.20"/>
        <lane id="S_in_1" index="1" speed="19.44" length="500.00" shape="508.00,0.00 508.00,483.20"/>
        <lane id="S_in_2" index="2" speed="19.44" length="500.00" shape="504.80,0.00 504.80,483.20"/>
        <lane id="S_in_3" index="3" speed="19.44" length="500.00" shape="501.60,0.00 501.60,483.20"/>
    </edge>
    <edge id="S_out" from="0" to="3" priority="46" length="500.00">
        <lane id="S_out_0" index="0" speed="11.11" length="500.00" shape="488.80,483.20 488.80,0.00"/>
        <lane id="S_out_1" index="1" speed="11.11" length="500.00" shape="492.00,483.20 492.00,0.00"/>
        <lane id="S_out_2" index="2" speed="11.11" length="500.00" shape="495.20,483.20 495.20,0.00"/>
        <lane id="S_out_3" index="3" speed="11.11" length="500.00" shape="498.40,483.20 498.40,0.00"/>
    </edge>
    <edge id="W_in" from="1" to="0" priority="78" length="500.00">
        <lane id="W_in_0" index="0" speed="19.44" length="500.00" shape="0.00,488.80 483.20,488.80"/>
        <lane id="W_in_1" index="1" speed="19.44" length="500.00" shape="0.00,492.00 483.20,492.00"/>
        <lane id="W_in_2" index="2" speed="19.44" length="500.00" shape="0.00,495.20 483.20,495.20"/>
        <lane id="W_in_3" index="3" speed="19.44" length="500.00" shape="0.00,498.40 483.20,498.40"/>
    </edge>
    <edge id="W_out" from="0" to="1" priority="46" length="500.00">
        <lane id="W_out_0" index="0" speed="11.11" length="500.00" shape="483.20,511.20 0.00,511.20"/>
        <lane id="W_out_1" index="1" speed="11.11" length="500.00" shape="483.20,508.00 0.00,508.00"/>
        <lane id="W_out_2" index="2" speed="11.11" length="500.00" shape="483.20,504.80 0.00,504.80"/>
        <lane id="W_out_3" index="3" speed="11.11" length="500.00" shape="483.20,501.60 0.00,501.60"/>
    </edge>

    <tlLogic id="0" type="static" programID="0" offset="0">
        <phase duration="8" state="GGGGrrrrrrGGGGrrrrrr"/>
        <phase duration="3"  state="yyyyrrrrrryyyyrrrrrr"/>
        <phase duration="4"  state="rrrrGrrrrrrrrrGrrrrr"/>
        <phase duration="3"  state="rrrryrrrrrrrrryrrrrr"/>
        <phase duration="8" state="rrrrrGGGGrrrrrrGGGGr"/>
        <phase duration="3"  state="rrrrryyyyrrrrrryyyyr"/>
        <phase duration="4"  state="rrrrrrrrrGrrrrrrrrrG"/>
        <phase duration="3"  state="rrrrrrrrryrrrrrrrrry"/>
    </tlLogic>

    <junction id="0" type="traffic_light" x="500.00" y="500.00" incLanes="N_in_0 N_in_1 N_in_2 N_in_3 E_in_0 E_in_1 E_in_2 E_in_3 S_in_0 S_in_1 S_in_2 S_in_3 W_in_0 W_in_1 W_in_2 W_in_3" intLanes=":0_0_0 :0_1_0 :0_1_1 :0_1_2 :0_4_0 :0_5_0 :0_6_0 :0_6_1 :0_6_2 :0_9_0 :0_10_0 :0_11_0 :0_11_1 :0_11_2 :0_14_0 :0_15_0 :0_16_0 :0_16_1 :0_16_2 :0_19_0" shape="487.20,516.80 512.80,516.80 513.24,514.58 513.80,513.80 514.58,513.24 515.58,512.91 516.80,512.80 516.80,487.20 514.58,486.76 513.80,486.20 513.24,485.42 512.91,484.42 512.80,483.20 487.20,483.20 486.76,485.42 486.20,486.20 485.42,486.76 484.42,487.09 483.20,487.20 483.20,512.80 485.42,513.24 486.20,513.80 486.76,514.58 487.09,515.58">
        <request index="0"  response="00000000000000000000" foes="00000000000111000000" cont="0"/>
        <request index="1"  response="00000000000000000000" foes="11111100000111000000" cont="0"/>
        <request index="2"  response="00000000000000000000" foes="11111100000111000000" cont="0"/>
        <request index="3"  response="00000000000000000000" foes="11111100000111000000" cont="0"/>
        <request index="4"  response="00000011100000000000" foes="10000011101111000000" cont="0"/>
        <request index="5"  response="00000011100000000000" foes="00000011100000000000" cont="0"/>
        <request index="6"  response="00000011100000011111" foes="10000011100000011111" cont="0"/>
        <request index="7"  response="00000011100000011111" foes="10000011100000011111" cont="0"/>
        <request index="8"  response="00000011100000011111" foes="10000011100000011111" cont="0"/>
        <request index="9"  response="01110111100000010000" foes="01110111100000010000" cont="0"/>
        <request index="10" response="00000000000000000000" foes="01110000000000000000" cont="0"/>
        <request index="11" response="00000000000000000000" foes="01110000001111110000" cont="0"/>
        <request index="12" response="00000000000000000000" foes="01110000001111110000" cont="0"/>
        <request index="13" response="00000000000000000000" foes="01110000001111110000" cont="0"/>
        <request index="14" response="00000000000000001110" foes="11110000001000001110" cont="0"/>
        <request index="15" response="00000000000000001110" foes="00000000000000001110" cont="0"/>
        <request index="16" response="00000111110000001110" foes="00000111111000001110" cont="0"/>
        <request index="17" response="00000111110000001110" foes="00000111111000001110" cont="0"/>
        <request index="18" response="00000111110000001110" foes="00000111111000001110" cont="0"/>
        <request index="19" response="00000100000111011110" foes="00000100000111011110" cont="0"/>
    </junction>
    <junction id="1" type="dead_end" x="0.00" y="500.00" incLanes="W_out_0 W_out_1 W_out_2 W_out_3" intLanes="" shape="0.00,500.00 0.00,512.80 0.00,500.00"/>
    <junction id="2" type="dead_end" x="1000.00" y="500.00" incLanes="E_out_0 E_out_1 E_out_2 E_out_3" intLanes="" shape="1000.00,500.00 1000.00,487.20 1000.00,500.00"/>
    <junction id="3" type="dead_end" x="500.00" y="0.00" incLanes="S_out_0 S_out_1 S_out_2 S_out_3" intLanes="" shape="500.00,0.00 487.20,0.00 500.00,0.00"/>
    <junction id="4" type="dead_end" x="500.00" y="1000.00" incLanes="N_out_0 N_out_1 N_out_2 N_out_3" intLanes="" shape="500.00,1000.00 512.80,1000.00 500.00,1000.00"/>

    <connection from="E_in" to="N_out" fromLane="0" toLane="0" via=":0_5_0" tl="0" linkIndex="5" dir="r" state="o"/>
    <connection from="E_in" to="W_out" fromLane="0" toLane="0" via=":0_6_0" tl="0" linkIndex="6" dir="s" state="o"/>
    <connection from="E_in" to="W_out" fromLane="1" toLane="1" via=":0_6_1" tl="0" linkIndex="7" dir="s" state="o"/>
    <connection from="E_in" to="W_out" fromLane="2" toLane="2" via=":0_6_2" tl="0" linkIndex="8" dir="s" state="o"/>
    <connection from="E_in" to="S_out" fromLane="3" toLane="3" via=":0_9_0" tl="0" linkIndex="9" dir="l" state="o"/>
    <connection from="N_in" to="W_out" fromLane="0" toLane="0" via=":0_0_0" tl="0" linkIndex="0" dir="r" state="O"/>
    <connection from="N_in" to="S_out" fromLane="0" toLane="0" via=":0_1_0" tl="0" linkIndex="1" dir="s" state="O"/>
    <connection from="N_in" to="S_out" fromLane="1" toLane="1" via=":0_1_1" tl="0" linkIndex="2" dir="s" state="O"/>
    <connection from="N_in" to="S_out" fromLane="2" toLane="2" via=":0_1_2" tl="0" linkIndex="3" dir="s" state="O"/>
    <connection from="N_in" to="E_out" fromLane="3" toLane="3" via=":0_4_0" tl="0" linkIndex="4" dir="l" state="o"/>
    <connection from="S_in" to="E_out" fromLane="0" toLane="0" via=":0_10_0" tl="0" linkIndex="10" dir="r" state="O"/>
    <connection from="S_in" to="N_out" fromLane="0" toLane="0" via=":0_11_0" tl="0" linkIndex="11" dir="s" state="O"/>
    <connection from="S_in" to="N_out" fromLane="1" toLane="1" via=":0_11_1" tl="0" linkIndex="12" dir="s" state="O"/>
    <connection from="S_in" to="N_out" fromLane="2" toLane="2" via=":0_11_2" tl="0" linkIndex="13" dir="s" state="O"/>
    <connection from="S_in" to="W_out" fromLane="3" toLane="3" via=":0_14_0" tl="0" linkIndex="14" dir="l" state="o"/>
    <connection from="W_in" to="S_out" fromLane="0" toLane="0" via=":0_15_0" tl="0" linkIndex="15" dir="r" state="o"/>
    <connection from="W_in" to="E_out" fromLane="0" toLane="0" via=":0_16_0" tl="0" linkIndex="16" dir="s" state="o"/>
    <connection from="W_in" to="E_out" fromLane="1" toLane="1" via=":0_16_1" tl="0" linkIndex="17" dir="s" state="o"/>
    <connection from="W_in" to="E_out" fromLane="2" toLane="2" via=":0_16_2" tl="0" linkIndex="18" dir="s" state="o"/>
    <connection from="W_in" to="N_out" fromLane="3" toLane="3" via=":0_19_0" tl="0" linkIndex="19" dir="l" state="o"/>

    <connection from=":0_0" to="W_out" fromLane="0" toLane="0" dir="r" state="M"/>
    <connection from=":0_1" to="S_out" fromLane="0" toLane="0" dir="s" state="M"/>
    <connection from=":0_1" to="S_out" fromLane="1" toLane="1" dir="s" state="M"/>
    <connection from=":0_1" to="S_out" fromLane="2" toLane="2" dir="s" state="M"/>
    <connection from=":0_4" to="E_out" fromLane="0" toLane="3" dir="l" state="M"/>
    <connection from=":0_5" to="N_out" fromLane="0" toLane="0" dir="r" state="M"/>
    <connection from=":0_6" to="W_out" fromLane="0" toLane="0" dir="s" state="M"/>
    <connection from=":0_6" to="W_out" fromLane="1" toLane="1" dir="s" state="M"/>
    <connection from=":0_6" to="W_out" fromLane="2" toLane="2" dir="s" state="M"/>
    <connection from=":0_9" to="S_out" fromLane="0" toLane="3" dir="l" state="M"/>
    <connection from=":0_10" to="E_out" fromLane="0" toLane="0" dir="r" state="M"/>
    <connection from=":0_11" to="N_out" fromLane="0" toLane="0" dir="s" state="M"/>
    <connection from=":0_11" to="N_out" fromLane="1" toLane="1" dir="s" state="M"/>
    <connection from=":0_11" to="N_out" fromLane="2" toLane="2" dir="s" state="M"/>
    <connection from=":0_14" to="W_out" fromLane="0" toLane="3" dir="l" state="M"/>
    <connection from=":0_15" to="S_out" fromLane="0" toLane="0" dir="r" state="M"/>
    <connection from=":0_16" to="E_out" fromLane="0" toLane="0" dir="s" state="M"/>
    <connection from=":0_16" to="E_out" fromLane="1" toLane="1" dir="s" state="M"/>
    <connection from=":0_16" to="E_out" fromLane="2" toLane="2" dir="s" state="M"/>
    <connection from=":0_19" to="N_out" fromLane="0" toLane="3" dir="l" state="M"/>

</net>
