                
<routes>
            <vType accel="1.0" decel="4.5" id="standard_car" length="5.0" minGap="2.5" maxSpeed="25" sigma="0.5" laneChangeMode="5242898"/>
            
            <!-- route definition (the car route) -->

            <route id="W_to_N" edges="W_in N_out"/>
            <route id="W_to_E" edges="W_in E_out"/>
            <route id="W_to_S" edges="W_in S_out"/>
            <route id="N_to_W" edges="N_in W_out"/>
            <route id="N_to_E" edges="N_in E_out"/>
            <route id="N_to_S" edges="N_in S_out"/>
            <route id="E_to_W" edges="E_in W_out"/>
            <route id="E_to_N" edges="E_in N_out"/>
            <route id="E_to_S" edges="E_in S_out"/>
            <route id="S_to_W" edges="S_in W_out"/>
            <route id="S_to_N" edges="S_in N_out"/>
            <route id="S_to_E" edges="S_in E_out"/>
    <vehicle id="vehicle_210_rand" type="standard_car" route="W_to_E" depart="1" departLane="random" departSpeed="10" laneChangeMode="5242898" />
    <vehicle id="vehicle_513_rand" type="standard_car" route="S_to_N" depart="2" departLane="random" departSpeed="10" laneChangeMode="5242898" />
    <vehicle id="vehicle_346_rand" type="standard_car" route="E_to_W" depart="3" departLane="random" departSpeed="10" laneChangeMode="5242898" />
    <vehicle id="vehicle_2_rand" type="standard_car" route="S_to_N" depart="11" departLane="random" departSpeed="10" laneChangeMode="5242898" />
    <vehicle id="vehicle_307_rand" type="standard_car" route="S_to_W" depart="16" departLane="random" departSpeed="10" laneChangeMode="5242898" />
    <vehicle id="vehicle_121_rand" type="standard_car" route="S_to_N" depart="18" departLane="random" departSpeed="10" laneChangeMode="5242898" />
    <vehicle id="vehicle_530_rand" type="standard_car" route="W_to_E" depart="22" departLane="random" departSpeed="10" laneChangeMode="5242898" />
    <vehicle id="vehicle_238_rand" type="standard_car" route="N_to_E" depart="23" departLane="random" departSpeed="10" laneChangeMode="5242898" />
    <vehicle id="vehicle_9_rand" type="standard_car" route="E_to_W" depart="23" departLane="random" departSpeed="10" laneChangeMode="5242898" />
    <vehicle id="vehicle_287_rand" type="standard_car" route="E_to_W" depart="26" departLane="random" departSpeed="10" laneChangeMode="5242898" />
    <vehicle id="vehicle_266_rand" type="standard_car" route="E_to_W" depart="33" departLane="random" departSpeed="10" laneChangeMode="5242898" />
    <vehicle id="vehicle_70_rand" type="standard_car" route="S_to_N" depart="39" departLane="random" departSpeed="10" laneChangeMode="5242898" />
    <vehicle id="vehicle_492_rand" type="standard_car" route="W_to_N" depart="52" departLane="random" departSpeed="10" laneChangeMode="5242898" />
    <vehicle id="vehicle_461_rand" type="standard_car" route="N_to_S" depart="56" departLane="random" departSpeed="10" laneChangeMode="5242898" />
    <vehicle id="vehicle_32_rand" type="standard_car" route="E_to_W" depart="74" departLane="random" departSpeed="10" laneChangeMode="5242898" />
    <vehicle id="vehicle_401_rand" type="standard_car" route="S_to_N" depart="75" departLane="random" departSpeed="10" laneChangeMode="5242898" />
    <vehicle id="vehicle_311_rand" type="standard_car" route="W_to_S" depart="83" departLane="random" departSpeed="10" laneChangeMode="5242898" />
    <vehicle id="vehicle_156_rand" type="standard_car" route="S_to_N" depart="85" departLane="random" departSpeed="10" laneChangeMode="5242898" />
    <vehicle id="vehicle_515_rand" type="standard_car" route="N_to_W" depart="86" departLane="random" departSpeed="10" laneChangeMode="5242898" />
    <vehicle id="vehicle_409_rand" type="standard_car" route="E_to_W" depart="88" departLane="random" departSpeed="10" laneChangeMode="5242898" />
    <vehicle id="vehicle_87_rand" type="standard_car" route="S_to_W" depart="114" departLane="random" departSpeed="10" laneChangeMode="5242898" />
    <vehicle id="vehicle_383_rand" type="standard_car" route="S_to_N" depart="119" departLane="random" departSpeed="10" laneChangeMode="5242898" />
    <vehicle id="vehicle_378_rand" type="standard_car" route="S_to_N" depart="121" departLane="random" departSpeed="10" laneChangeMode="5242898" />
    <vehicle id="vehicle_343_rand" type="standard_car" route="N_to_S" depart="125" departLane="random" departSpeed="10" laneChangeMode="5242898" />
    <vehicle id="vehicle_186_rand" type="standard_car" route="S_to_N" depart="133" departLane="random" departSpeed="10" laneChangeMode="5242898" />
    <vehicle id="vehicle_233_rand" type="standard_car" route="W_to_E" depart="134" departLane="random" departSpeed="10" laneChangeMode="5242898" />
    <vehicle id="vehicle_464_rand" type="standard_car" route="N_to_S" depart="138" departLane="random" departSpeed="10" laneChangeMode="5242898" />
    <vehicle id="vehicle_48_rand" type="standard_car" route="S_to_N" depart="152" departLane="random" departSpeed="10" laneChangeMode="5242898" />
    <vehicle id="vehicle_571_rand" type="standard_car" route="W_to_E" depart="153" departLane="random" departSpeed="10" laneChangeMode="5242898" />
    <vehicle id="vehicle_155_rand" type="standard_car" route="N_to_E" depart="155" departLane="random" departSpeed="10" laneChangeMode="5242898" />
    <vehicle id="vehicle_418_rand" type="standard_car" route="E_to_W" depart="164" departLane="random" departSpeed="10" laneChangeMode="5242898" />
    <vehicle id="vehicle_204_rand" type="standard_car" route="S_to_N" depart="168" departLane="random" departSpeed="10" laneChangeMode="5242898" />
    <vehicle id="vehicle_344_rand" type="standard_car" route="S_to_N" depart="172" departLane="random" departSpeed="10" laneChangeMode="5242898" />
    <vehicle id="vehicle_1_rand" type="standard_car" route="W_to_E" depart="176" departLane="random" departSpeed="10" laneChangeMode="5242898" />
    <vehicle id="vehicle_494_rand" type="standard_car" route="W_to_E" depart="179" departLane="random" departSpeed="10" laneChangeMode="5242898" />
    <vehicle id="vehicle_453_rand" type="standard_car" route="S_to_E" depart="196" departLane="random" departSpeed="10" laneChangeMode="5242898" />
    <vehicle id="vehicle_207_rand" type="standard_car" route="W_to_E" depart="202" departLane="random" departSpeed="10" laneChangeMode="5242898" />
    <vehicle id="vehicle_189_rand" type="standard_car" route="S_to_N" depart="207" departLane="random" departSpeed="10" laneChangeMode="5242898" />
    <vehicle id="vehicle_334_rand" type="standard_car" route="N_to_E" depart="211" departLane="random" departSpeed="10" laneChangeMode="5242898" />
    <vehicle id="vehicle_575_rand" type="standard_car" route="S_to_E" depart="217" departLane="random" departSpeed="10" laneChangeMode="5242898" />
    <vehicle id="vehicle_381_rand" type="standard_car" route="S_to_N" depart="222" departLane="random" departSpeed="10" laneChangeMode="5242898" />
    <vehicle id="vehicle_332_rand" type="standard_car" route="E_to_N" depart="226" departLane="random" departSpeed="10" laneChangeMode="5242898" />
    <vehicle id="vehicle_439_rand" type="standard_car" route="N_to_S" depart="230" departLane="random" departSpeed="10" laneChangeMode="5242898" />
    <vehicle id="vehicle_529_rand" type="standard_car" route="S_to_N" depart="231" departLane="random" departSpeed="10" laneChangeMode="5242898" />
    <vehicle id="vehicle_235_rand" type="standard_car" route="W_to_E" depart="246" departLane="random" departSpeed="10" laneChangeMode="5242898" />
    <vehicle id="vehicle_160_rand" type="standard_car" route="W_to_E" depart="258" departLane="random" departSpeed="10" laneChangeMode="5242898" />
    <vehicle id="vehicle_414_rand" type="standard_car" route="W_to_E" depart="259" departLane="random" departSpeed="10" laneChangeMode="5242898" />
    <vehicle id="vehicle_277_rand" type="standard_car" route="S_to_E" depart="281" departLane="random" departSpeed="10" laneChangeMode="5242898" />
    <vehicle id="vehicle_57_rand" type="standard_car" route="E_to_W" depart="289" departLane="random" departSpeed="10" laneChangeMode="5242898" />
    <vehicle id="vehicle_72_rand" type="standard_car" route="S_to_N" depart="297" departLane="random" departSpeed="10" laneChangeMode="5242898" />
    <vehicle id="vehicle_10_rand" type="standard_car" route="N_to_S" depart="299" departLane="random" departSpeed="10" laneChangeMode="5242898" />
    <vehicle id="vehicle_380_rand" type="standard_car" route="W_to_E" depart="299" departLane="random" departSpeed="10" laneChangeMode="5242898" />
    <vehicle id="vehicle_462_rand" type="standard_car" route="S_to_N" depart="299" departLane="random" departSpeed="10" laneChangeMode="5242898" />
    <vehicle id="vehicle_352_rand" type="standard_car" route="W_to_E" depart="300" departLane="random" departSpeed="10" laneChangeMode="5242898" />
    <vehicle id="vehicle_510_rand" type="standard_car" route="E_to_W" depart="301" departLane="random" departSpeed="10" laneChangeMode="5242898" />
    <vehicle id="vehicle_537_rand" type="standard_car" route="S_to_N" depart="302" departLane="random" departSpeed="10" laneChangeMode="5242898" />
    <vehicle id="vehicle_382_rand" type="standard_car" route="N_to_S" depart="307" departLane="random" departSpeed="10" laneChangeMode="5242898" />
    <vehicle id="vehicle_107_rand" type="standard_car" route="W_to_N" depart="330" departLane="random" departSpeed="10" laneChangeMode="5242898" />
    <vehicle id="vehicle_55_rand" type="standard_car" route="N_to_S" depart="333" departLane="random" departSpeed="10" laneChangeMode="5242898" />
    <vehicle id="vehicle_115_rand" type="standard_car" route="S_to_N" depart="341" departLane="random" departSpeed="10" laneChangeMode="5242898" />
    <vehicle id="vehicle_310_rand" type="standard_car" route="N_to_S" depart="344" departLane="random" departSpeed="10" laneChangeMode="5242898" />
    <vehicle id="vehicle_420_rand" type="standard_car" route="S_to_N" depart="344" departLane="random" departSpeed="10" laneChangeMode="5242898" />
    <vehicle id="vehicle_542_rand" type="standard_car" route="N_to_W" depart="359" departLane="random" departSpeed="10" laneChangeMode="5242898" />
    <vehicle id="vehicle_538_rand" type="standard_car" route="E_to_S" depart="360" departLane="random" departSpeed="10" laneChangeMode="5242898" />
    <vehicle id="vehicle_502_rand" type="standard_car" route="E_to_W" depart="361" departLane="random" departSpeed="10" laneChangeMode="5242898" />
    <vehicle id="vehicle_173_rand" type="standard_car" route="S_to_N" depart="362" departLane="random" departSpeed="10" laneChangeMode="5242898" />
    <vehicle id="vehicle_71_rand" type="standard_car" route="W_to_E" depart="365" departLane="random" departSpeed="10" laneChangeMode="5242898" />
    <vehicle id="vehicle_351_rand" type="standard_car" route="E_to_W" depart="367" departLane="random" departSpeed="10" laneChangeMode="5242898" />
    <vehicle id="vehicle_533_rand" type="standard_car" route="W_to_S" depart="376" departLane="random" departSpeed="10" laneChangeMode="5242898" />
    <vehicle id="vehicle_315_rand" type="standard_car" route="N_to_S" depart="377" departLane="random" departSpeed="10" laneChangeMode="5242898" />
    <vehicle id="vehicle_398_rand" type="standard_car" route="N_to_S" depart="395" departLane="random" departSpeed="10" laneChangeMode="5242898" />
    <vehicle id="vehicle_338_rand" type="standard_car" route="E_to_W" depart="413" departLane="random" departSpeed="10" laneChangeMode="5242898" />
    <vehicle id="vehicle_284_rand" type="standard_car" route="E_to_W" depart="414" departLane="random" departSpeed="10" laneChangeMode="5242898" />
    <vehicle id="vehicle_455_rand" type="standard_car" route="N_to_W" depart="417" departLane="random" departSpeed="10" laneChangeMode="5242898" />
    <vehicle id="vehicle_345_rand" type="standard_car" route="W_to_E" depart="418" departLane="random" departSpeed="10" laneChangeMode="5242898" />
    <vehicle id="vehicle_221_rand" type="standard_car" route="W_to_E" depart="421" departLane="random" departSpeed="10" laneChangeMode="5242898" />
    <vehicle id="vehicle_105_rand" type="standard_car" route="E_to_S" depart="429" departLane="random" departSpeed="10" laneChangeMode="5242898" />
    <vehicle id="vehicle_64_gaussian" type="standard_car" route="W_to_E" depart="429" departLane="random" departSpeed="10" laneChangeMode="5242898" />
    <vehicle id="vehicle_246_rand" type="standard_car" route="N_to_S" depart="431" departLane="random" departSpeed="10" laneChangeMode="5242898" />
    <vehicle id="vehicle_554_rand" type="standard_car" route="E_to_N" depart="432" departLane="random" departSpeed="10" laneChangeMode="5242898" />
    <vehicle id="vehicle_49_gaussian" type="standard_car" route="W_to_E" depart="434" departLane="random" departSpeed="10" laneChangeMode="5242898" />
    <vehicle id="vehicle_157_gaussian" type="standard_car" route="W_to_E" depart="435" departLane="random" departSpeed="10" laneChangeMode="5242898" />
    <vehicle id="vehicle_524_rand" type="standard_car" route="W_to_E" depart="439" departLane="random" departSpeed="10" laneChangeMode="5242898" />
    <vehicle id="vehicle_78_gaussian" type="standard_car" route="W_to_S" depart="443" departLane="random" departSpeed="10" laneChangeMode="5242898" />
    <vehicle id="vehicle_7_gaussian" type="standard_car" route="W_to_E" depart="450" departLane="random" departSpeed="10" laneChangeMode="5242898" />
    <vehicle id="vehicle_363_rand" type="standard_car" route="E_to_W" depart="451" departLane="random" departSpeed="10" laneChangeMode="5242898" />
    <vehicle id="vehicle_104_gaussian" type="standard_car" route="W_to_S" depart="454" departLane="random" departSpeed="10" laneChangeMode="5242898" />
    <vehicle id="vehicle_305_gaussian" type="standard_car" route="W_to_E" depart="458" departLane="random" departSpeed="10" laneChangeMode="5242898" />
    <vehicle id="vehicle_242_rand" type="standard_car" route="S_to_N" depart="459" departLane="random" departSpeed="10" laneChangeMode="5242898" />
    <vehicle id="vehicle_483_rand" type="standard_car" route="E_to_W" depart="459" departLane="random" departSpeed="10" laneChangeMode="5242898" />
    <vehicle id="vehicle_245_gaussian" type="standard_car" route="W_to_N" depart="461" departLane="random" departSpeed="10" laneChangeMode="5242898" />
    <vehicle id="vehicle_106_gaussian" type="standard_car" route="W_to_E" depart="463" departLane="random" departSpeed="10" laneChangeMode="5242898" />
    <vehicle id="vehicle_408_rand" type="standard_car" route="N_to_S" depart="464" departLane="random" departSpeed="10" laneChangeMode="5242898" />
    <vehicle id="vehicle_196_gaussian" type="standard_car" route="W_to_E" depart="467" departLane="random" departSpeed="10" laneChangeMode="5242898" />
    <vehicle id="vehicle_252_rand" type="standard_car" route="E_to_W" depart="467" departLane="random" departSpeed="10" laneChangeMode="5242898" />
    <vehicle id="vehicle_243_gaussian" type="standard_car" route="W_to_N" depart="470" departLane="random" departSpeed="10" laneChangeMode="5242898" />
    <vehicle id="vehicle_15_gaussian" type="standard_car" route="W_to_E" depart="471" departLane="random" departSpeed="10" laneChangeMode="5242898" />
    <vehicle id="vehicle_588_rand" type="standard_car" route="S_to_N" depart="474" departLane="random" departSpeed="10" laneChangeMode="5242898" />
    <vehicle id="vehicle_185_rand" type="standard_car" route="S_to_E" depart="475" departLane="random" departSpeed="10" laneChangeMode="5242898" />
    <vehicle id="vehicle_25_gaussian" type="standard_car" route="W_to_E" depart="478" departLane="random" departSpeed="10" laneChangeMode="5242898" />
    <vehicle id="vehicle_388_gaussian" type="standard_car" route="W_to_E" depart="480" departLane="random" departSpeed="10" laneChangeMode="5242898" />
    <vehicle id="vehicle_100_gaussian" type="standard_car" route="W_to_E" depart="481" departLane="random" departSpeed="10" laneChangeMode="5242898" />
    <vehicle id="vehicle_299_gaussian" type="standard_car" route="W_to_N" depart="485" departLane="random" departSpeed="10" laneChangeMode="5242898" />
    <vehicle id="vehicle_584_rand" type="standard_car" route="S_to_N" depart="487" departLane="random" departSpeed="10" laneChangeMode="5242898" />
    <vehicle id="vehicle_369_gaussian" type="standard_car" route="W_to_E" depart="489" departLane="random" departSpeed="10" laneChangeMode="5242898" />
    <vehicle id="vehicle_56_rand" type="standard_car" route="S_to_W" depart="493" departLane="random" departSpeed="10" laneChangeMode="5242898" />
    <vehicle id="vehicle_140_gaussian" type="standard_car" route="E_to_W" depart="496" departLane="random" departSpeed="10" laneChangeMode="5242898" />
    <vehicle id="vehicle_82_gaussian" type="standard_car" route="W_to_N" depart="500" departLane="random" departSpeed="10" laneChangeMode="5242898" />
    <vehicle id="vehicle_164_gaussian" type="standard_car" route="W_to_E" depart="501" departLane="random" departSpeed="10" laneChangeMode="5242898" />
    <vehicle id="vehicle_287_gaussian" type="standard_car" route="W_to_E" depart="502" departLane="random" departSpeed="10" laneChangeMode="5242898" />
    <vehicle id="vehicle_65_gaussian" type="standard_car" route="W_to_N" depart="502" departLane="random" departSpeed="10" laneChangeMode="5242898" />
    <vehicle id="vehicle_304_gaussian" type="standard_car" route="W_to_E" depart="504" departLane="random" departSpeed="10" laneChangeMode="5242898" />
    <vehicle id="vehicle_558_rand" type="standard_car" route="N_to_E" depart="505" departLane="random" departSpeed="10" laneChangeMode="5242898" />
    <vehicle id="vehicle_114_gaussian" type="standard_car" route="W_to_E" depart="508" departLane="random" departSpeed="10" laneChangeMode="5242898" />
    <vehicle id="vehicle_52_gaussian" type="standard_car" route="W_to_E" depart="508" departLane="random" departSpeed="10" laneChangeMode="5242898" />
    <vehicle id="vehicle_74_gaussian" type="standard_car" route="W_to_S" depart="509" departLane="random" departSpeed="10" laneChangeMode="5242898" />
    <vehicle id="vehicle_261_rand" type="standard_car" route="E_to_N" depart="511" departLane="random" departSpeed="10" laneChangeMode="5242898" />
    <vehicle id="vehicle_385_gaussian" type="standard_car" route="W_to_E" depart="511" departLane="random" departSpeed="10" laneChangeMode="5242898" />
    <vehicle id="vehicle_53_rand" type="standard_car" route="E_to_W" depart="514" departLane="random" departSpeed="10" laneChangeMode="5242898" />
    <vehicle id="vehicle_94_rand" type="standard_car" route="N_to_S" depart="514" departLane="random" departSpeed="10" laneChangeMode="5242898" />
    <vehicle id="vehicle_341_gaussian" type="standard_car" route="W_to_E" depart="517" departLane="random" departSpeed="10" laneChangeMode="5242898" />
    <vehicle id="vehicle_322_gaussian" type="standard_car" route="W_to_E" depart="521" departLane="random" departSpeed="10" laneChangeMode="5242898" />
    <vehicle id="vehicle_383_gaussian" type="standard_car" route="W_to_E" depart="521" departLane="random" departSpeed="10" laneChangeMode="5242898" />
    <vehicle id="vehicle_405_rand" type="standard_car" route="W_to_E" depart="524" departLane="random" departSpeed="10" laneChangeMode="5242898" />
    <vehicle id="vehicle_156_gaussian" type="standard_car" route="W_to_E" depart="526" departLane="random" departSpeed="10" laneChangeMode="5242898" />
    <vehicle id="vehicle_327_gaussian" type="standard_car" route="W_to_S" depart="529" departLane="random" departSpeed="10" laneChangeMode="5242898" />
    <vehicle id="vehicle_500_rand" type="standard_car" route="E_to_W" depart="530" departLane="random" departSpeed="10" laneChangeMode="5242898" />
    <vehicle id="vehicle_126_gaussian" type="standard_car" route="W_to_E" depart="532" departLane="random" departSpeed="10" laneChangeMode="5242898" />
    <vehicle id="vehicle_585_rand" type="standard_car" route="N_to_S" depart="534" departLane="random" departSpeed="10" laneChangeMode="5242898" />
    <vehicle id="vehicle_129_gaussian" type="standard_car" route="W_to_E" depart="537" departLane="random" departSpeed="10" laneChangeMode="5242898" />
    <vehicle id="vehicle_104_rand" type="standard_car" route="N_to_S" depart="539" departLane="random" departSpeed="10" laneChangeMode="5242898" />
    <vehicle id="vehicle_17_rand" type="standard_car" route="E_to_S" depart="543" departLane="random" departSpeed="10" laneChangeMode="5242898" />
    <vehicle id="vehicle_374_gaussian" type="standard_car" route="W_to_E" depart="545" departLane="random" departSpeed="10" laneChangeMode="5242898" />
    <vehicle id="vehicle_481_rand" type="standard_car" route="N_to_S" depart="546" departLane="random" departSpeed="10" laneChangeMode="5242898" />
    <vehicle id="vehicle_123_gaussian" type="standard_car" route="W_to_E" depart="552" departLane="random" departSpeed="10" laneChangeMode="5242898" />
    <vehicle id="vehicle_133_gaussian" type="standard_car" route="W_to_E" depart="552" departLane="random" departSpeed="10" laneChangeMode="5242898" />
    <vehicle id="vehicle_10_gaussian" type="standard_car" route="W_to_S" depart="553" departLane="random" departSpeed="10" laneChangeMode="5242898" />
    <vehicle id="vehicle_45_rand" type="standard_car" route="W_to_E" depart="553" departLane="random" departSpeed="10" laneChangeMode="5242898" />
    <vehicle id="vehicle_59_gaussian" type="standard_car" route="W_to_E" depart="554" departLane="random" departSpeed="10" laneChangeMode="5242898" />
    <vehicle id="vehicle_45_gaussian" type="standard_car" route="W_to_E" depart="555" departLane="random" departSpeed="10" laneChangeMode="5242898" />
    <vehicle id="vehicle_551_rand" type="standard_car" route="S_to_N" depart="556" departLane="random" departSpeed="10" laneChangeMode="5242898" />
    <vehicle id="vehicle_60_gaussian" type="standard_car" route="W_to_E" depart="556" departLane="random" departSpeed="10" laneChangeMode="5242898" />
    <vehicle id="vehicle_340_rand" type="standard_car" route="W_to_N" depart="560" departLane="random" departSpeed="10" laneChangeMode="5242898" />
    <vehicle id="vehicle_308_gaussian" type="standard_car" route="W_to_S" depart="561" departLane="random" departSpeed="10" laneChangeMode="5242898" />
    <vehicle id="vehicle_351_gaussian" type="standard_car" route="W_to_E" depart="565" departLane="random" departSpeed="10" laneChangeMode="5242898" />
    <vehicle id="vehicle_172_gaussian" type="standard_car" route="W_to_E" depart="566" departLane="random" departSpeed="10" laneChangeMode="5242898" />
    <vehicle id="vehicle_303_gaussian" type="standard_car" route="W_to_E" depart="569" departLane="random" departSpeed="10" laneChangeMode="5242898" />
    <vehicle id="vehicle_478_rand" type="standard_car" route="S_to_N" depart="569" departLane="random" departSpeed="10" laneChangeMode="5242898" />
    <vehicle id="vehicle_288_gaussian" type="standard_car" route="W_to_N" depart="570" departLane="random" departSpeed="10" laneChangeMode="5242898" />
    <vehicle id="vehicle_101_gaussian" type="standard_car" route="W_to_E" depart="573" departLane="random" departSpeed="10" laneChangeMode="5242898" />
    <vehicle id="vehicle_8_gaussian" type="standard_car" route="W_to_E" depart="573" departLane="random" departSpeed="10" laneChangeMode="5242898" />
    <vehicle id="vehicle_300_gaussian" type="standard_car" route="E_to_W" depart="577" departLane="random" departSpeed="10" laneChangeMode="5242898" />
    <vehicle id="vehicle_99_rand" type="standard_car" route="N_to_S" depart="577" departLane="random" departSpeed="10" laneChangeMode="5242898" />
    <vehicle id="vehicle_42_rand" type="standard_car" route="S_to_W" depart="579" departLane="random" departSpeed="10" laneChangeMode="5242898" />
    <vehicle id="vehicle_359_rand" type="standard_car" route="S_to_N" depart="586" departLane="random" departSpeed="10" laneChangeMode="5242898" />
    <vehicle id="vehicle_465_rand" type="standard_car" route="N_to_E" depart="588" departLane="random" departSpeed="10" laneChangeMode="5242898" />
    <vehicle id="vehicle_397_gaussian" type="standard_car" route="W_to_E" depart="589" departLane="random" departSpeed="10" laneChangeMode="5242898" />
    <vehicle id="vehicle_246_gaussian" type="standard_car" route="W_to_S" depart="590" departLane="random" departSpeed="10" laneChangeMode="5242898" />
    <vehicle id="vehicle_71_gaussian" type="standard_car" route="W_to_S" depart="590" departLane="random" departSpeed="10" laneChangeMode="5242898" />
    <vehicle id="vehicle_352_gaussian" type="standard_car" route="W_to_E" depart="591" departLane="random" departSpeed="10" laneChangeMode="5242898" />
    <vehicle id="vehicle_76_gaussian" type="standard_car" route="W_to_S" depart="591" departLane="random" departSpeed="10" laneChangeMode="5242898" />
    <vehicle id="vehicle_225_gaussian" type="standard_car" route="W_to_N" depart="592" departLane="random" departSpeed="10" laneChangeMode="5242898" />
    <vehicle id="vehicle_19_gaussian" type="standard_car" route="W_to_E" depart="593" departLane="random" departSpeed="10" laneChangeMode="5242898" />
    <vehicle id="vehicle_27_gaussian" type="standard_car" route="W_to_E" depart="597" departLane="random" departSpeed="10" laneChangeMode="5242898" />
    <vehicle id="vehicle_301_gaussian" type="standard_car" route="W_to_E" depart="598" departLane="random" departSpeed="10" laneChangeMode="5242898" />
    <vehicle id="vehicle_34_gaussian" type="standard_car" route="W_to_E" depart="598" departLane="random" departSpeed="10" laneChangeMode="5242898" />
    <vehicle id="vehicle_229_gaussian" type="standard_car" route="E_to_N" depart="600" departLane="random" departSpeed="10" laneChangeMode="5242898" />
    <vehicle id="vehicle_184_rand" type="standard_car" route="W_to_E" depart="603" departLane="random" departSpeed="10" laneChangeMode="5242898" />
    <vehicle id="vehicle_279_rand" type="standard_car" route="E_to_W" depart="605" departLane="random" departSpeed="10" laneChangeMode="5242898" />
    <vehicle id="vehicle_177_rand" type="standard_car" route="N_to_S" depart="608" departLane="random" departSpeed="10" laneChangeMode="5242898" />
    <vehicle id="vehicle_501_rand" type="standard_car" route="W_to_E" depart="608" departLane="random" departSpeed="10" laneChangeMode="5242898" />
    <vehicle id="vehicle_0_gaussian" type="standard_car" route="W_to_N" depart="611" departLane="random" departSpeed="10" laneChangeMode="5242898" />
    <vehicle id="vehicle_16_gaussian" type="standard_car" route="E_to_N" depart="614" departLane="random" departSpeed="10" laneChangeMode="5242898" />
    <vehicle id="vehicle_167_gaussian" type="standard_car" route="W_to_S" depart="615" departLane="random" departSpeed="10" laneChangeMode="5242898" />
    <vehicle id="vehicle_335_gaussian" type="standard_car" route="W_to_E" depart="616" departLane="random" departSpeed="10" laneChangeMode="5242898" />
    <vehicle id="vehicle_240_rand" type="standard_car" route="E_to_W" depart="619" departLane="random" departSpeed="10" laneChangeMode="5242898" />
    <vehicle id="vehicle_200_gaussian" type="standard_car" route="W_to_E" depart="620" departLane="random" departSpeed="10" laneChangeMode="5242898" />
    <vehicle id="vehicle_267_rand" type="standard_car" route="N_to_S" depart="622" departLane="random" departSpeed="10" laneChangeMode="5242898" />
    <vehicle id="vehicle_268_gaussian" type="standard_car" route="W_to_S" depart="622" departLane="random" departSpeed="10" laneChangeMode="5242898" />
    <vehicle id="vehicle_364_gaussian" type="standard_car" route="W_to_E" depart="623" departLane="random" departSpeed="10" laneChangeMode="5242898" />
    <vehicle id="vehicle_283_rand" type="standard_car" route="E_to_W" depart="625" departLane="random" departSpeed="10" laneChangeMode="5242898" />
    <vehicle id="vehicle_350_gaussian" type="standard_car" route="W_to_E" depart="630" departLane="random" departSpeed="10" laneChangeMode="5242898" />
    <vehicle id="vehicle_573_rand" type="standard_car" route="S_to_N" depart="631" departLane="random" departSpeed="10" laneChangeMode="5242898" />
    <vehicle id="vehicle_507_rand" type="standard_car" route="N_to_E" depart="632" departLane="random" departSpeed="10" laneChangeMode="5242898" />
    <vehicle id="vehicle_176_gaussian" type="standard_car" route="W_to_E" depart="633" departLane="random" departSpeed="10" laneChangeMode="5242898" />
    <vehicle id="vehicle_256_gaussian" type="standard_car" route="W_to_E" depart="635" departLane="random" departSpeed="10" laneChangeMode="5242898" />
    <vehicle id="vehicle_311_gaussian" type="standard_car" route="W_to_E" depart="639" departLane="random" departSpeed="10" laneChangeMode="5242898" />
    <vehicle id="vehicle_393_gaussian" type="standard_car" route="E_to_N" depart="644" departLane="random" departSpeed="10" laneChangeMode="5242898" />
    <vehicle id="vehicle_39_gaussian" type="standard_car" route="E_to_W" depart="646" departLane="random" departSpeed="10" laneChangeMode="5242898" />
    <vehicle id="vehicle_128_gaussian" type="standard_car" route="W_to_S" depart="648" departLane="random" departSpeed="10" laneChangeMode="5242898" />
    <vehicle id="vehicle_122_rand" type="standard_car" route="N_to_S" depart="650" departLane="random" departSpeed="10" laneChangeMode="5242898" />
    <vehicle id="vehicle_302_gaussian" type="standard_car" route="W_to_E" depart="650" departLane="random" departSpeed="10" laneChangeMode="5242898" />
    <vehicle id="vehicle_17_gaussian" type="standard_car" route="W_to_E" depart="657" departLane="random" departSpeed="10" laneChangeMode="5242898" />