                
<routes>
            <vType accel="1.0" decel="4.5" id="standard_car" length="5.0" minGap="2.5" maxSpeed="25" sigma="0.5" laneChangeMode="5242898"/>
            
            <!-- route definition (the car route) -->

            <route id="W_to_N" edges="W_in N_out"/>
            <route id="W_to_E" edges="W_in E_out"/>
            <route id="W_to_S" edges="W_in S_out"/>
            <route id="N_to_W" edges="N_in W_out"/>
            <route id="N_to_E" edges="N_in E_out"/>
            <route id="N_to_S" edges="N_in S_out"/>
            <route id="E_to_W" edges="E_in W_out"/>
            <route id="E_to_N" edges="E_in N_out"/>
            <route id="E_to_S" edges="E_in S_out"/>
            <route id="S_to_W" edges="S_in W_out"/>
            <route id="S_to_N" edges="S_in N_out"/>
            <route id="S_to_E" edges="S_in E_out"/>
    <vehicle id="vehicle_589_rand" type="standard_car" route="W_to_N" depart="10" departLane="random" departSpeed="10" laneChangeMode="5242898" />
    <vehicle id="vehicle_205_rand" type="standard_car" route="S_to_E" depart="13" departLane="random" departSpeed="10" laneChangeMode="5242898" />
    <vehicle id="vehicle_407_rand" type="standard_car" route="W_to_E" depart="17" departLane="random" departSpeed="10" laneChangeMode="5242898" />
    <vehicle id="vehicle_143_rand" type="standard_car" route="W_to_E" depart="20" departLane="random" departSpeed="10" laneChangeMode="5242898" />
    <vehicle id="vehicle_199_rand" type="standard_car" route="S_to_N" depart="28" departLane="random" departSpeed="10" laneChangeMode="5242898" />
    <vehicle id="vehicle_123_rand" type="standard_car" route="S_to_N" depart="57" departLane="random" departSpeed="10" laneChangeMode="5242898" />
    <vehicle id="vehicle_159_rand" type="standard_car" route="S_to_N" depart="64" departLane="random" departSpeed="10" laneChangeMode="5242898" />
    <vehicle id="vehicle_167_rand" type="standard_car" route="E_to_W" depart="71" departLane="random" departSpeed="10" laneChangeMode="5242898" />
    <vehicle id="vehicle_422_rand" type="standard_car" route="W_to_S" depart="75" departLane="random" departSpeed="10" laneChangeMode="5242898" />
    <vehicle id="vehicle_543_rand" type="standard_car" route="W_to_E" depart="78" departLane="random" departSpeed="10" laneChangeMode="5242898" />
    <vehicle id="vehicle_71_rand" type="standard_car" route="N_to_E" depart="83" departLane="random" departSpeed="10" laneChangeMode="5242898" />
    <vehicle id="vehicle_539_rand" type="standard_car" route="S_to_N" depart="85" departLane="random" departSpeed="10" laneChangeMode="5242898" />
    <vehicle id="vehicle_180_rand" type="standard_car" route="W_to_E" depart="88" departLane="random" departSpeed="10" laneChangeMode="5242898" />
    <vehicle id="vehicle_45_rand" type="standard_car" route="S_to_N" depart="91" departLane="random" departSpeed="10" laneChangeMode="5242898" />
    <vehicle id="vehicle_489_rand" type="standard_car" route="W_to_E" depart="92" departLane="random" departSpeed="10" laneChangeMode="5242898" />
    <vehicle id="vehicle_96_rand" type="standard_car" route="S_to_E" depart="95" departLane="random" departSpeed="10" laneChangeMode="5242898" />
    <vehicle id="vehicle_269_rand" type="standard_car" route="N_to_S" depart="96" departLane="random" departSpeed="10" laneChangeMode="5242898" />
    <vehicle id="vehicle_309_rand" type="standard_car" route="N_to_S" depart="102" departLane="random" departSpeed="10" laneChangeMode="5242898" />
    <vehicle id="vehicle_141_rand" type="standard_car" route="W_to_E" depart="104" departLane="random" departSpeed="10" laneChangeMode="5242898" />
    <vehicle id="vehicle_135_rand" type="standard_car" route="S_to_N" depart="109" departLane="random" departSpeed="10" laneChangeMode="5242898" />
    <vehicle id="vehicle_227_rand" type="standard_car" route="W_to_E" depart="115" departLane="random" departSpeed="10" laneChangeMode="5242898" />
    <vehicle id="vehicle_362_rand" type="standard_car" route="E_to_W" depart="121" departLane="random" departSpeed="10" laneChangeMode="5242898" />
    <vehicle id="vehicle_152_rand" type="standard_car" route="S_to_N" depart="123" departLane="random" departSpeed="10" laneChangeMode="5242898" />
    <vehicle id="vehicle_351_rand" type="standard_car" route="W_to_E" depart="126" departLane="random" departSpeed="10" laneChangeMode="5242898" />
    <vehicle id="vehicle_522_rand" type="standard_car" route="E_to_N" depart="128" departLane="random" departSpeed="10" laneChangeMode="5242898" />
    <vehicle id="vehicle_118_rand" type="standard_car" route="S_to_N" depart="137" departLane="random" departSpeed="10" laneChangeMode="5242898" />
    <vehicle id="vehicle_285_rand" type="standard_car" route="N_to_S" depart="147" departLane="random" departSpeed="10" laneChangeMode="5242898" />
    <vehicle id="vehicle_482_rand" type="standard_car" route="W_to_E" depart="161" departLane="random" departSpeed="10" laneChangeMode="5242898" />
    <vehicle id="vehicle_554_rand" type="standard_car" route="W_to_E" depart="168" departLane="random" departSpeed="10" laneChangeMode="5242898" />
    <vehicle id="vehicle_63_rand" type="standard_car" route="S_to_N" depart="171" departLane="random" departSpeed="10" laneChangeMode="5242898" />
    <vehicle id="vehicle_483_rand" type="standard_car" route="W_to_S" depart="174" departLane="random" departSpeed="10" laneChangeMode="5242898" />
    <vehicle id="vehicle_130_rand" type="standard_car" route="S_to_N" depart="178" departLane="random" departSpeed="10" laneChangeMode="5242898" />
    <vehicle id="vehicle_228_rand" type="standard_car" route="E_to_W" depart="181" departLane="random" departSpeed="10" laneChangeMode="5242898" />
    <vehicle id="vehicle_40_rand" type="standard_car" route="W_to_E" depart="182" departLane="random" departSpeed="10" laneChangeMode="5242898" />
    <vehicle id="vehicle_372_rand" type="standard_car" route="E_to_W" depart="194" departLane="random" departSpeed="10" laneChangeMode="5242898" />
    <vehicle id="vehicle_131_rand" type="standard_car" route="E_to_S" depart="197" departLane="random" departSpeed="10" laneChangeMode="5242898" />
    <vehicle id="vehicle_21_rand" type="standard_car" route="E_to_W" depart="199" departLane="random" departSpeed="10" laneChangeMode="5242898" />
    <vehicle id="vehicle_417_rand" type="standard_car" route="N_to_E" depart="200" departLane="random" departSpeed="10" laneChangeMode="5242898" />
    <vehicle id="vehicle_36_rand" type="standard_car" route="E_to_W" depart="206" departLane="random" departSpeed="10" laneChangeMode="5242898" />
    <vehicle id="vehicle_247_rand" type="standard_car" route="S_to_W" depart="210" departLane="random" departSpeed="10" laneChangeMode="5242898" />
    <vehicle id="vehicle_244_rand" type="standard_car" route="W_to_S" depart="212" departLane="random" departSpeed="10" laneChangeMode="5242898" />
    <vehicle id="vehicle_19_rand" type="standard_car" route="S_to_E" depart="222" departLane="random" departSpeed="10" laneChangeMode="5242898" />
    <vehicle id="vehicle_193_rand" type="standard_car" route="E_to_W" depart="225" departLane="random" departSpeed="10" laneChangeMode="5242898" />
    <vehicle id="vehicle_270_rand" type="standard_car" route="N_to_S" depart="236" departLane="random" departSpeed="10" laneChangeMode="5242898" />
    <vehicle id="vehicle_69_rand" type="standard_car" route="W_to_E" depart="248" departLane="random" departSpeed="10" laneChangeMode="5242898" />
    <vehicle id="vehicle_37_rand" type="standard_car" route="N_to_S" depart="255" departLane="random" departSpeed="10" laneChangeMode="5242898" />
    <vehicle id="vehicle_186_rand" type="standard_car" route="S_to_N" depart="263" departLane="random" departSpeed="10" laneChangeMode="5242898" />
    <vehicle id="vehicle_189_rand" type="standard_car" route="E_to_W" depart="263" departLane="random" departSpeed="10" laneChangeMode="5242898" />
    <vehicle id="vehicle_585_rand" type="standard_car" route="S_to_N" depart="266" departLane="random" departSpeed="10" laneChangeMode="5242898" />
    <vehicle id="vehicle_240_gaussian" type="standard_car" route="S_to_N" depart="271" departLane="random" departSpeed="10" laneChangeMode="5242898" />
    <vehicle id="vehicle_235_rand" type="standard_car" route="S_to_N" depart="275" departLane="random" departSpeed="10" laneChangeMode="5242898" />
    <vehicle id="vehicle_109_rand" type="standard_car" route="S_to_N" depart="276" departLane="random" departSpeed="10" laneChangeMode="5242898" />
    <vehicle id="vehicle_375_rand" type="standard_car" route="S_to_N" depart="280" departLane="random" departSpeed="10" laneChangeMode="5242898" />
    <vehicle id="vehicle_101_rand" type="standard_car" route="S_to_E" depart="287" departLane="random" departSpeed="10" laneChangeMode="5242898" />
    <vehicle id="vehicle_414_rand" type="standard_car" route="N_to_E" depart="287" departLane="random" departSpeed="10" laneChangeMode="5242898" />
    <vehicle id="vehicle_72_rand" type="standard_car" route="S_to_W" depart="290" departLane="random" departSpeed="10" laneChangeMode="5242898" />
    <vehicle id="vehicle_296_rand" type="standard_car" route="W_to_E" depart="291" departLane="random" departSpeed="10" laneChangeMode="5242898" />
    <vehicle id="vehicle_570_rand" type="standard_car" route="E_to_W" depart="300" departLane="random" departSpeed="10" laneChangeMode="5242898" />
    <vehicle id="vehicle_216_gaussian" type="standard_car" route="S_to_E" depart="305" departLane="random" departSpeed="10" laneChangeMode="5242898" />
    <vehicle id="vehicle_513_rand" type="standard_car" route="E_to_W" depart="311" departLane="random" departSpeed="10" laneChangeMode="5242898" />
    <vehicle id="vehicle_324_rand" type="standard_car" route="N_to_E" depart="312" departLane="random" departSpeed="10" laneChangeMode="5242898" />
    <vehicle id="vehicle_341_gaussian" type="standard_car" route="S_to_N" depart="314" departLane="random" departSpeed="10" laneChangeMode="5242898" />
    <vehicle id="vehicle_359_rand" type="standard_car" route="W_to_E" depart="315" departLane="random" departSpeed="10" laneChangeMode="5242898" />
    <vehicle id="vehicle_267_rand" type="standard_car" route="N_to_S" depart="320" departLane="random" departSpeed="10" laneChangeMode="5242898" />
    <vehicle id="vehicle_415_rand" type="standard_car" route="S_to_N" depart="321" departLane="random" departSpeed="10" laneChangeMode="5242898" />
    <vehicle id="vehicle_108_rand" type="standard_car" route="S_to_N" depart="330" departLane="random" departSpeed="10" laneChangeMode="5242898" />
    <vehicle id="vehicle_48_gaussian" type="standard_car" route="S_to_N" depart="330" departLane="random" departSpeed="10" laneChangeMode="5242898" />
    <vehicle id="vehicle_278_rand" type="standard_car" route="N_to_S" depart="341" departLane="random" departSpeed="10" laneChangeMode="5242898" />
    <vehicle id="vehicle_292_rand" type="standard_car" route="S_to_N" depart="341" departLane="random" departSpeed="10" laneChangeMode="5242898" />
    <vehicle id="vehicle_386_gaussian" type="standard_car" route="S_to_E" depart="350" departLane="random" departSpeed="10" laneChangeMode="5242898" />
    <vehicle id="vehicle_238_rand" type="standard_car" route="E_to_W" depart="352" departLane="random" departSpeed="10" laneChangeMode="5242898" />
    <vehicle id="vehicle_368_gaussian" type="standard_car" route="S_to_W" depart="353" departLane="random" departSpeed="10" laneChangeMode="5242898" />
    <vehicle id="vehicle_97_gaussian" type="standard_car" route="S_to_E" depart="353" departLane="random" departSpeed="10" laneChangeMode="5242898" />
    <vehicle id="vehicle_53_rand" type="standard_car" route="N_to_W" depart="354" departLane="random" departSpeed="10" laneChangeMode="5242898" />
    <vehicle id="vehicle_262_gaussian" type="standard_car" route="S_to_E" depart="357" departLane="random" departSpeed="10" laneChangeMode="5242898" />
    <vehicle id="vehicle_191_gaussian" type="standard_car" route="S_to_N" depart="358" departLane="random" departSpeed="10" laneChangeMode="5242898" />
    <vehicle id="vehicle_357_gaussian" type="standard_car" route="S_to_W" depart="358" departLane="random" departSpeed="10" laneChangeMode="5242898" />
    <vehicle id="vehicle_52_rand" type="standard_car" route="S_to_N" depart="358" departLane="random" departSpeed="10" laneChangeMode="5242898" />
    <vehicle id="vehicle_488_rand" type="standard_car" route="S_to_W" depart="359" departLane="random" departSpeed="10" laneChangeMode="5242898" />
    <vehicle id="vehicle_597_rand" type="standard_car" route="S_to_E" depart="359" departLane="random" departSpeed="10" laneChangeMode="5242898" />
    <vehicle id="vehicle_237_gaussian" type="standard_car" route="S_to_N" depart="364" departLane="random" departSpeed="10" laneChangeMode="5242898" />
    <vehicle id="vehicle_376_rand" type="standard_car" route="W_to_E" depart="366" departLane="random" departSpeed="10" laneChangeMode="5242898" />
    <vehicle id="vehicle_512_rand" type="standard_car" route="E_to_W" depart="366" departLane="random" departSpeed="10" laneChangeMode="5242898" />
    <vehicle id="vehicle_53_gaussian" type="standard_car" route="S_to_N" depart="366" departLane="random" departSpeed="10" laneChangeMode="5242898" />
    <vehicle id="vehicle_115_gaussian" type="standard_car" route="S_to_N" depart="368" departLane="random" departSpeed="10" laneChangeMode="5242898" />
    <vehicle id="vehicle_49_gaussian" type="standard_car" route="S_to_N" depart="371" departLane="random" departSpeed="10" laneChangeMode="5242898" />
    <vehicle id="vehicle_445_rand" type="standard_car" route="S_to_N" depart="373" departLane="random" departSpeed="10" laneChangeMode="5242898" />
    <vehicle id="vehicle_121_rand" type="standard_car" route="E_to_W" depart="374" departLane="random" departSpeed="10" laneChangeMode="5242898" />
    <vehicle id="vehicle_384_gaussian" type="standard_car" route="S_to_N" depart="374" departLane="random" departSpeed="10" laneChangeMode="5242898" />
    <vehicle id="vehicle_371_rand" type="standard_car" route="S_to_E" depart="375" departLane="random" departSpeed="10" laneChangeMode="5242898" />
    <vehicle id="vehicle_448_rand" type="standard_car" route="S_to_N" depart="377" departLane="random" departSpeed="10" laneChangeMode="5242898" />
    <vehicle id="vehicle_24_gaussian" type="standard_car" route="S_to_W" depart="379" departLane="random" departSpeed="10" laneChangeMode="5242898" />
    <vehicle id="vehicle_393_rand" type="standard_car" route="W_to_N" depart="379" departLane="random" departSpeed="10" laneChangeMode="5242898" />
    <vehicle id="vehicle_114_gaussian" type="standard_car" route="S_to_N" depart="380" departLane="random" departSpeed="10" laneChangeMode="5242898" />
    <vehicle id="vehicle_395_gaussian" type="standard_car" route="S_to_N" depart="380" departLane="random" departSpeed="10" laneChangeMode="5242898" />
    <vehicle id="vehicle_126_gaussian" type="standard_car" route="S_to_N" depart="381" departLane="random" departSpeed="10" laneChangeMode="5242898" />
    <vehicle id="vehicle_6_rand" type="standard_car" route="W_to_E" depart="381" departLane="random" departSpeed="10" laneChangeMode="5242898" />
    <vehicle id="vehicle_333_rand" type="standard_car" route="E_to_W" depart="383" departLane="random" departSpeed="10" laneChangeMode="5242898" />
    <vehicle id="vehicle_218_gaussian" type="standard_car" route="S_to_N" depart="384" departLane="random" departSpeed="10" laneChangeMode="5242898" />
    <vehicle id="vehicle_317_rand" type="standard_car" route="W_to_E" depart="384" departLane="random" departSpeed="10" laneChangeMode="5242898" />
    <vehicle id="vehicle_118_gaussian" type="standard_car" route="S_to_N" depart="386" departLane="random" departSpeed="10" laneChangeMode="5242898" />
    <vehicle id="vehicle_198_gaussian" type="standard_car" route="S_to_N" depart="387" departLane="random" departSpeed="10" laneChangeMode="5242898" />
    <vehicle id="vehicle_39_gaussian" type="standard_car" route="S_to_N" depart="392" departLane="random" departSpeed="10" laneChangeMode="5242898" />
    <vehicle id="vehicle_281_gaussian" type="standard_car" route="S_to_N" depart="398" departLane="random" departSpeed="10" laneChangeMode="5242898" />
    <vehicle id="vehicle_505_rand" type="standard_car" route="W_to_E" depart="398" departLane="random" departSpeed="10" laneChangeMode="5242898" />
    <vehicle id="vehicle_184_rand" type="standard_car" route="N_to_S" depart="402" departLane="random" departSpeed="10" laneChangeMode="5242898" />
    <vehicle id="vehicle_287_gaussian" type="standard_car" route="S_to_N" depart="404" departLane="random" departSpeed="10" laneChangeMode="5242898" />
    <vehicle id="vehicle_441_rand" type="standard_car" route="E_to_S" depart="406" departLane="random" departSpeed="10" laneChangeMode="5242898" />
    <vehicle id="vehicle_284_gaussian" type="standard_car" route="S_to_W" depart="409" departLane="random" departSpeed="10" laneChangeMode="5242898" />
    <vehicle id="vehicle_506_rand" type="standard_car" route="W_to_E" depart="409" departLane="random" departSpeed="10" laneChangeMode="5242898" />
    <vehicle id="vehicle_159_gaussian" type="standard_car" route="S_to_W" depart="410" departLane="random" departSpeed="10" laneChangeMode="5242898" />
    <vehicle id="vehicle_222_gaussian" type="standard_car" route="S_to_N" depart="413" departLane="random" departSpeed="10" laneChangeMode="5242898" />
    <vehicle id="vehicle_155_gaussian" type="standard_car" route="S_to_N" depart="415" departLane="random" departSpeed="10" laneChangeMode="5242898" />
    <vehicle id="vehicle_355_rand" type="standard_car" route="E_to_S" depart="418" departLane="random" departSpeed="10" laneChangeMode="5242898" />
    <vehicle id="vehicle_419_rand" type="standard_car" route="W_to_E" depart="418" departLane="random" departSpeed="10" laneChangeMode="5242898" />
    <vehicle id="vehicle_220_rand" type="standard_car" route="E_to_W" depart="419" departLane="random" departSpeed="10" laneChangeMode="5242898" />
    <vehicle id="vehicle_331_gaussian" type="standard_car" route="S_to_N" depart="419" departLane="random" departSpeed="10" laneChangeMode="5242898" />
    <vehicle id="vehicle_595_rand" type="standard_car" route="N_to_S" depart="422" departLane="random" departSpeed="10" laneChangeMode="5242898" />
    <vehicle id="vehicle_29_gaussian" type="standard_car" route="S_to_E" depart="424" departLane="random" departSpeed="10" laneChangeMode="5242898" />
    <vehicle id="vehicle_105_rand" type="standard_car" route="S_to_N" depart="426" departLane="random" departSpeed="10" laneChangeMode="5242898" />
    <vehicle id="vehicle_291_gaussian" type="standard_car" route="S_to_N" depart="428" departLane="random" departSpeed="10" laneChangeMode="5242898" />
    <vehicle id="vehicle_280_gaussian" type="standard_car" route="S_to_N" depart="432" departLane="random" departSpeed="10" laneChangeMode="5242898" />
    <vehicle id="vehicle_108_gaussian" type="standard_car" route="S_to_N" depart="433" departLane="random" departSpeed="10" laneChangeMode="5242898" />
    <vehicle id="vehicle_138_gaussian" type="standard_car" route="S_to_N" depart="435" departLane="random" departSpeed="10" laneChangeMode="5242898" />
    <vehicle id="vehicle_243_gaussian" type="standard_car" route="S_to_N" depart="437" departLane="random" departSpeed="10" laneChangeMode="5242898" />
    <vehicle id="vehicle_269_gaussian" type="standard_car" route="S_to_N" depart="437" departLane="random" departSpeed="10" laneChangeMode="5242898" />
    <vehicle id="vehicle_392_gaussian" type="standard_car" route="S_to_E" depart="439" departLane="random" departSpeed="10" laneChangeMode="5242898" />
    <vehicle id="vehicle_84_gaussian" type="standard_car" route="S_to_W" depart="439" departLane="random" departSpeed="10" laneChangeMode="5242898" />
    <vehicle id="vehicle_497_rand" type="standard_car" route="N_to_S" depart="443" departLane="random" departSpeed="10" laneChangeMode="5242898" />
    <vehicle id="vehicle_104_gaussian" type="standard_car" route="S_to_E" depart="445" departLane="random" departSpeed="10" laneChangeMode="5242898" />
    <vehicle id="vehicle_154_gaussian" type="standard_car" route="S_to_N" depart="446" departLane="random" departSpeed="10" laneChangeMode="5242898" />
    <vehicle id="vehicle_343_gaussian" type="standard_car" route="S_to_W" depart="446" departLane="random" departSpeed="10" laneChangeMode="5242898" />
    <vehicle id="vehicle_304_gaussian" type="standard_car" route="S_to_N" depart="448" departLane="random" departSpeed="10" laneChangeMode="5242898" />
    <vehicle id="vehicle_10_gaussian" type="standard_car" route="S_to_E" depart="449" departLane="random" departSpeed="10" laneChangeMode="5242898" />
    <vehicle id="vehicle_163_gaussian" type="standard_car" route="S_to_N" depart="449" departLane="random" departSpeed="10" laneChangeMode="5242898" />
    <vehicle id="vehicle_326_gaussian" type="standard_car" route="S_to_W" depart="451" departLane="random" departSpeed="10" laneChangeMode="5242898" />
    <vehicle id="vehicle_377_gaussian" type="standard_car" route="S_to_N" depart="451" departLane="random" departSpeed="10" laneChangeMode="5242898" />
    <vehicle id="vehicle_5_rand" type="standard_car" route="S_to_E" depart="453" departLane="random" departSpeed="10" laneChangeMode="5242898" />
    <vehicle id="vehicle_352_rand" type="standard_car" route="N_to_S" depart="457" departLane="random" departSpeed="10" laneChangeMode="5242898" />
    <vehicle id="vehicle_59_gaussian" type="standard_car" route="S_to_E" depart="457" departLane="random" departSpeed="10" laneChangeMode="5242898" />
    <vehicle id="vehicle_214_gaussian" type="standard_car" route="S_to_N" depart="458" departLane="random" departSpeed="10" laneChangeMode="5242898" />
    <vehicle id="vehicle_501_rand" type="standard_car" route="S_to_E" depart="461" departLane="random" departSpeed="10" laneChangeMode="5242898" />
    <vehicle id="vehicle_236_rand" type="standard_car" route="N_to_S" depart="465" departLane="random" departSpeed="10" laneChangeMode="5242898" />
    <vehicle id="vehicle_74_gaussian" type="standard_car" route="S_to_W" depart="468" departLane="random" departSpeed="10" laneChangeMode="5242898" />
    <vehicle id="vehicle_90_gaussian" type="standard_car" route="S_to_N" depart="468" departLane="random" departSpeed="10" laneChangeMode="5242898" />
    <vehicle id="vehicle_207_gaussian" type="standard_car" route="S_to_W" depart="469" departLane="random" departSpeed="10" laneChangeMode="5242898" />
    <vehicle id="vehicle_277_rand" type="standard_car" route="N_to_S" depart="471" departLane="random" departSpeed="10" laneChangeMode="5242898" />
    <vehicle id="vehicle_75_gaussian" type="standard_car" route="S_to_N" depart="471" departLane="random" departSpeed="10" laneChangeMode="5242898" />
    <vehicle id="vehicle_572_rand" type="standard_car" route="W_to_E" depart="472" departLane="random" departSpeed="10" laneChangeMode="5242898" />
    <vehicle id="vehicle_1_rand" type="standard_car" route="E_to_W" depart="475" departLane="random" departSpeed="10" laneChangeMode="5242898" />
    <vehicle id="vehicle_35_gaussian" type="standard_car" route="S_to_N" depart="475" departLane="random" departSpeed="10" laneChangeMode="5242898" />
    <vehicle id="vehicle_11_gaussian" type="standard_car" route="S_to_N" depart="477" departLane="random" departSpeed="10" laneChangeMode="5242898" />
    <vehicle id="vehicle_122_gaussian" type="standard_car" route="S_to_N" depart="478" departLane="random" departSpeed="10" laneChangeMode="5242898" />
    <vehicle id="vehicle_62_gaussian" type="standard_car" route="S_to_N" depart="480" departLane="random" departSpeed="10" laneChangeMode="5242898" />
    <vehicle id="vehicle_394_gaussian" type="standard_car" route="S_to_N" depart="481" departLane="random" departSpeed="10" laneChangeMode="5242898" />
    <vehicle id="vehicle_137_gaussian" type="standard_car" route="S_to_N" depart="482" departLane="random" departSpeed="10" laneChangeMode="5242898" />
    <vehicle id="vehicle_101_gaussian" type="standard_car" route="S_to_N" depart="483" departLane="random" departSpeed="10" laneChangeMode="5242898" />
    <vehicle id="vehicle_215_rand" type="standard_car" route="E_to_W" depart="483" departLane="random" departSpeed="10" laneChangeMode="5242898" />
    <vehicle id="vehicle_229_gaussian" type="standard_car" route="S_to_E" depart="483" departLane="random" departSpeed="10" laneChangeMode="5242898" />
    <vehicle id="vehicle_388_gaussian" type="standard_car" route="S_to_N" depart="483" departLane="random" departSpeed="10" laneChangeMode="5242898" />
    <vehicle id="vehicle_364_gaussian" type="standard_car" route="S_to_N" depart="484" departLane="random" departSpeed="10" laneChangeMode="5242898" />
    <vehicle id="vehicle_166_rand" type="standard_car" route="W_to_E" depart="487" departLane="random" departSpeed="10" laneChangeMode="5242898" />
    <vehicle id="vehicle_6_gaussian" type="standard_car" route="S_to_N" depart="487" departLane="random" departSpeed="10" laneChangeMode="5242898" />
    <vehicle id="vehicle_285_gaussian" type="standard_car" route="S_to_N" depart="489" departLane="random" departSpeed="10" laneChangeMode="5242898" />
    <vehicle id="vehicle_591_rand" type="standard_car" route="W_to_E" depart="490" departLane="random" departSpeed="10" laneChangeMode="5242898" />
    <vehicle id="vehicle_98_rand" type="standard_car" route="S_to_E" depart="490" departLane="random" departSpeed="10" laneChangeMode="5242898" />
    <vehicle id="vehicle_57_rand" type="standard_car" route="S_to_E" depart="492" departLane="random" departSpeed="10" laneChangeMode="5242898" />
    <vehicle id="vehicle_553_rand" type="standard_car" route="E_to_W" depart="495" departLane="random" departSpeed="10" laneChangeMode="5242898" />
    <vehicle id="vehicle_136_gaussian" type="standard_car" route="N_to_S" depart="500" departLane="random" departSpeed="10" laneChangeMode="5242898" />
    <vehicle id="vehicle_188_gaussian" type="standard_car" route="S_to_N" depart="504" departLane="random" departSpeed="10" laneChangeMode="5242898" />
    <vehicle id="vehicle_380_rand" type="standard_car" route="W_to_E" depart="504" departLane="random" departSpeed="10" laneChangeMode="5242898" />
    <vehicle id="vehicle_426_rand" type="standard_car" route="W_to_E" depart="504" departLane="random" departSpeed="10" laneChangeMode="5242898" />
    <vehicle id="vehicle_294_gaussian" type="standard_car" route="S_to_W" depart="507" departLane="random" departSpeed="10" laneChangeMode="5242898" />
    <vehicle id="vehicle_298_gaussian" type="standard_car" route="S_to_E" depart="508" departLane="random" departSpeed="10" laneChangeMode="5242898" />
    <vehicle id="vehicle_50_rand" type="standard_car" route="N_to_S" depart="508" departLane="random" departSpeed="10" laneChangeMode="5242898" />
    <vehicle id="vehicle_274_gaussian" type="standard_car" route="S_to_W" depart="509" departLane="random" departSpeed="10" laneChangeMode="5242898" />
    <vehicle id="vehicle_311_rand" type="standard_car" route="S_to_N" depart="515" departLane="random" departSpeed="10" laneChangeMode="5242898" />
    <vehicle id="vehicle_368_rand" type="standard_car" route="N_to_S" depart="515" departLane="random" departSpeed="10" laneChangeMode="5242898" />
    <vehicle id="vehicle_201_gaussian" type="standard_car" route="S_to_N" depart="516" departLane="random" departSpeed="10" laneChangeMode="5242898" />
    <vehicle id="vehicle_256_gaussian" type="standard_car" route="S_to_N" depart="516" departLane="random" departSpeed="10" laneChangeMode="5242898" />
    <vehicle id="vehicle_183_gaussian" type="standard_car" route="S_to_N" depart="520" departLane="random" departSpeed="10" laneChangeMode="5242898" />
    <vehicle id="vehicle_270_gaussian" type="standard_car" route="S_to_W" depart="522" departLane="random" departSpeed="10" laneChangeMode="5242898" />
    <vehicle id="vehicle_238_gaussian" type="standard_car" route="N_to_S" depart="523" departLane="random" departSpeed="10" laneChangeMode="5242898" />
    <vehicle id="vehicle_530_rand" type="standard_car" route="E_to_W" depart="526" departLane="random" departSpeed="10" laneChangeMode="5242898" />
    <vehicle id="vehicle_21_gaussian" type="standard_car" route="S_to_N" depart="530" departLane="random" departSpeed="10" laneChangeMode="5242898" />
    <vehicle id="vehicle_219_gaussian" type="standard_car" route="S_to_W" depart="533" departLane="random" departSpeed="10" laneChangeMode="5242898" />
    <vehicle id="vehicle_253_gaussian" type="standard_car" route="N_to_S" depart="534" departLane="random" departSpeed="10" laneChangeMode="5242898" />
    <vehicle id="vehicle_377_rand" type="standard_car" route="E_to_W" depart="534" departLane="random" departSpeed="10" laneChangeMode="5242898" />
    <vehicle id="vehicle_49_rand" type="standard_car" route="E_to_W" depart="538" departLane="random" departSpeed="10" laneChangeMode="5242898" />
    <vehicle id="vehicle_592_rand" type="standard_car" route="E_to_W" depart="538" departLane="random" departSpeed="10" laneChangeMode="5242898" />
    <vehicle id="vehicle_336_gaussian" type="standard_car" route="N_to_S" depart="541" departLane="random" departSpeed="10" laneChangeMode="5242898" />
    <vehicle id="vehicle_110_gaussian" type="standard_car" route="N_to_S" depart="543" departLane="random" departSpeed="10" laneChangeMode="5242898" />
    <vehicle id="vehicle_99_gaussian" type="standard_car" route="S_to_N" depart="544" departLane="random" departSpeed="10" laneChangeMode="5242898" />