                
<routes>
            <vType accel="1.0" decel="4.5" id="standard_car" length="5.0" minGap="2.5" maxSpeed="25" sigma="0.5" laneChangeMode="5242898"/>
            
            <!-- route definition (the car route) -->

            <route id="W_to_N" edges="W_in N_out"/>
            <route id="W_to_E" edges="W_in E_out"/>
            <route id="W_to_S" edges="W_in S_out"/>
            <route id="N_to_W" edges="N_in W_out"/>
            <route id="N_to_E" edges="N_in E_out"/>
            <route id="N_to_S" edges="N_in S_out"/>
            <route id="E_to_W" edges="E_in W_out"/>
            <route id="E_to_N" edges="E_in N_out"/>
            <route id="E_to_S" edges="E_in S_out"/>
            <route id="S_to_W" edges="S_in W_out"/>
            <route id="S_to_N" edges="S_in N_out"/>
            <route id="S_to_E" edges="S_in E_out"/>
    <vehicle id="vehicle_36" type="standard_car" route="S_to_E" depart="314.0" departLane="random" departSpeed="10" laneChangeMode="5242898" />
    <vehicle id="vehicle_525" type="standard_car" route="S_to_W" depart="317.0" departLane="random" departSpeed="10" laneChangeMode="5242898" />
    <vehicle id="vehicle_283" type="standard_car" route="S_to_N" depart="318.0" departLane="random" departSpeed="10" laneChangeMode="5242898" />
    <vehicle id="vehicle_96" type="standard_car" route="S_to_N" depart="338.0" departLane="random" departSpeed="10" laneChangeMode="5242898" />
    <vehicle id="vehicle_66" type="standard_car" route="S_to_N" depart="345.0" departLane="random" departSpeed="10" laneChangeMode="5242898" />
    <vehicle id="vehicle_619" type="standard_car" route="S_to_E" depart="359.0" departLane="random" departSpeed="10" laneChangeMode="5242898" />
    <vehicle id="vehicle_882" type="standard_car" route="S_to_N" depart="365.0" departLane="random" departSpeed="10" laneChangeMode="5242898" />
    <vehicle id="vehicle_713" type="standard_car" route="S_to_N" depart="375.0" departLane="random" departSpeed="10" laneChangeMode="5242898" />
    <vehicle id="vehicle_471" type="standard_car" route="S_to_E" depart="378.0" departLane="random" departSpeed="10" laneChangeMode="5242898" />
    <vehicle id="vehicle_685" type="standard_car" route="S_to_E" depart="386.0" departLane="random" departSpeed="10" laneChangeMode="5242898" />
    <vehicle id="vehicle_328" type="standard_car" route="S_to_N" depart="392.0" departLane="random" departSpeed="10" laneChangeMode="5242898" />
    <vehicle id="vehicle_716" type="standard_car" route="S_to_E" depart="392.0" departLane="random" departSpeed="10" laneChangeMode="5242898" />
    <vehicle id="vehicle_533" type="standard_car" route="S_to_N" depart="396.0" departLane="random" departSpeed="10" laneChangeMode="5242898" />
    <vehicle id="vehicle_885" type="standard_car" route="S_to_E" depart="396.0" departLane="random" departSpeed="10" laneChangeMode="5242898" />
    <vehicle id="vehicle_303" type="standard_car" route="S_to_N" depart="397.0" departLane="random" departSpeed="10" laneChangeMode="5242898" />
    <vehicle id="vehicle_473" type="standard_car" route="S_to_N" depart="398.0" departLane="random" departSpeed="10" laneChangeMode="5242898" />
    <vehicle id="vehicle_198" type="standard_car" route="S_to_N" depart="400.0" departLane="random" departSpeed="10" laneChangeMode="5242898" />
    <vehicle id="vehicle_224" type="standard_car" route="S_to_N" depart="401.0" departLane="random" departSpeed="10" laneChangeMode="5242898" />
    <vehicle id="vehicle_712" type="standard_car" route="S_to_E" depart="402.0" departLane="random" departSpeed="10" laneChangeMode="5242898" />
    <vehicle id="vehicle_90" type="standard_car" route="S_to_N" depart="407.0" departLane="random" departSpeed="10" laneChangeMode="5242898" />
    <vehicle id="vehicle_756" type="standard_car" route="S_to_N" depart="408.0" departLane="random" departSpeed="10" laneChangeMode="5242898" />
    <vehicle id="vehicle_470" type="standard_car" route="S_to_N" depart="410.0" departLane="random" departSpeed="10" laneChangeMode="5242898" />
    <vehicle id="vehicle_678" type="standard_car" route="S_to_N" depart="414.0" departLane="random" departSpeed="10" laneChangeMode="5242898" />
    <vehicle id="vehicle_748" type="standard_car" route="S_to_W" depart="416.0" departLane="random" departSpeed="10" laneChangeMode="5242898" />
    <vehicle id="vehicle_647" type="standard_car" route="S_to_E" depart="417.0" departLane="random" departSpeed="10" laneChangeMode="5242898" />
    <vehicle id="vehicle_717" type="standard_car" route="S_to_N" depart="418.0" departLane="random" departSpeed="10" laneChangeMode="5242898" />
    <vehicle id="vehicle_182" type="standard_car" route="S_to_N" depart="419.0" departLane="random" departSpeed="10" laneChangeMode="5242898" />
    <vehicle id="vehicle_843" type="standard_car" route="S_to_N" depart="419.0" departLane="random" departSpeed="10" laneChangeMode="5242898" />
    <vehicle id="vehicle_342" type="standard_car" route="S_to_E" depart="422.0" departLane="random" departSpeed="10" laneChangeMode="5242898" />
    <vehicle id="vehicle_996" type="standard_car" route="S_to_N" depart="422.0" departLane="random" departSpeed="10" laneChangeMode="5242898" />
    <vehicle id="vehicle_592" type="standard_car" route="S_to_W" depart="427.0" departLane="random" departSpeed="10" laneChangeMode="5242898" />
    <vehicle id="vehicle_670" type="standard_car" route="S_to_N" depart="430.0" departLane="random" departSpeed="10" laneChangeMode="5242898" />
    <vehicle id="vehicle_291" type="standard_car" route="S_to_N" depart="432.0" departLane="random" departSpeed="10" laneChangeMode="5242898" />
    <vehicle id="vehicle_606" type="standard_car" route="S_to_N" depart="432.0" departLane="random" departSpeed="10" laneChangeMode="5242898" />
    <vehicle id="vehicle_736" type="standard_car" route="S_to_N" depart="432.0" departLane="random" departSpeed="10" laneChangeMode="5242898" />
    <vehicle id="vehicle_557" type="standard_car" route="S_to_E" depart="433.0" departLane="random" departSpeed="10" laneChangeMode="5242898" />
    <vehicle id="vehicle_260" type="standard_car" route="S_to_E" depart="434.0" departLane="random" departSpeed="10" laneChangeMode="5242898" />
    <vehicle id="vehicle_544" type="standard_car" route="S_to_N" depart="437.0" departLane="random" departSpeed="10" laneChangeMode="5242898" />
    <vehicle id="vehicle_193" type="standard_car" route="S_to_N" depart="438.0" departLane="random" departSpeed="10" laneChangeMode="5242898" />
    <vehicle id="vehicle_251" type="standard_car" route="S_to_N" depart="441.0" departLane="random" departSpeed="10" laneChangeMode="5242898" />
    <vehicle id="vehicle_763" type="standard_car" route="S_to_N" depart="441.0" departLane="random" departSpeed="10" laneChangeMode="5242898" />
    <vehicle id="vehicle_26" type="standard_car" route="S_to_N" depart="445.0" departLane="random" departSpeed="10" laneChangeMode="5242898" />
    <vehicle id="vehicle_611" type="standard_car" route="S_to_N" depart="448.0" departLane="random" departSpeed="10" laneChangeMode="5242898" />
    <vehicle id="vehicle_719" type="standard_car" route="S_to_N" depart="448.0" departLane="random" departSpeed="10" laneChangeMode="5242898" />
    <vehicle id="vehicle_924" type="standard_car" route="S_to_E" depart="448.0" departLane="random" departSpeed="10" laneChangeMode="5242898" />
    <vehicle id="vehicle_243" type="standard_car" route="S_to_N" depart="449.0" departLane="random" departSpeed="10" laneChangeMode="5242898" />
    <vehicle id="vehicle_306" type="standard_car" route="S_to_N" depart="450.0" departLane="random" departSpeed="10" laneChangeMode="5242898" />
    <vehicle id="vehicle_464" type="standard_car" route="S_to_N" depart="450.0" departLane="random" departSpeed="10" laneChangeMode="5242898" />
    <vehicle id="vehicle_37" type="standard_car" route="S_to_N" depart="453.0" departLane="random" departSpeed="10" laneChangeMode="5242898" />
    <vehicle id="vehicle_629" type="standard_car" route="S_to_W" depart="455.0" departLane="random" departSpeed="10" laneChangeMode="5242898" />
    <vehicle id="vehicle_314" type="standard_car" route="S_to_N" depart="457.0" departLane="random" departSpeed="10" laneChangeMode="5242898" />
    <vehicle id="vehicle_43" type="standard_car" route="S_to_E" depart="457.0" departLane="random" departSpeed="10" laneChangeMode="5242898" />
    <vehicle id="vehicle_474" type="standard_car" route="S_to_N" depart="457.0" departLane="random" departSpeed="10" laneChangeMode="5242898" />
    <vehicle id="vehicle_475" type="standard_car" route="S_to_N" depart="460.0" departLane="random" departSpeed="10" laneChangeMode="5242898" />
    <vehicle id="vehicle_364" type="standard_car" route="S_to_N" depart="463.0" departLane="random" departSpeed="10" laneChangeMode="5242898" />
    <vehicle id="vehicle_277" type="standard_car" route="S_to_N" depart="465.0" departLane="random" departSpeed="10" laneChangeMode="5242898" />
    <vehicle id="vehicle_778" type="standard_car" route="S_to_N" depart="466.0" departLane="random" departSpeed="10" laneChangeMode="5242898" />
    <vehicle id="vehicle_542" type="standard_car" route="S_to_N" depart="467.0" departLane="random" departSpeed="10" laneChangeMode="5242898" />
    <vehicle id="vehicle_981" type="standard_car" route="S_to_N" depart="467.0" departLane="random" departSpeed="10" laneChangeMode="5242898" />
    <vehicle id="vehicle_51" type="standard_car" route="S_to_N" depart="468.0" departLane="random" departSpeed="10" laneChangeMode="5242898" />
    <vehicle id="vehicle_840" type="standard_car" route="S_to_N" depart="468.0" departLane="random" departSpeed="10" laneChangeMode="5242898" />
    <vehicle id="vehicle_207" type="standard_car" route="S_to_E" depart="469.0" departLane="random" departSpeed="10" laneChangeMode="5242898" />
    <vehicle id="vehicle_39" type="standard_car" route="S_to_E" depart="470.0" departLane="random" departSpeed="10" laneChangeMode="5242898" />
    <vehicle id="vehicle_823" type="standard_car" route="S_to_N" depart="470.0" departLane="random" departSpeed="10" laneChangeMode="5242898" />
    <vehicle id="vehicle_158" type="standard_car" route="S_to_W" depart="471.0" departLane="random" departSpeed="10" laneChangeMode="5242898" />
    <vehicle id="vehicle_601" type="standard_car" route="S_to_N" depart="471.0" departLane="random" departSpeed="10" laneChangeMode="5242898" />
    <vehicle id="vehicle_221" type="standard_car" route="S_to_N" depart="472.0" departLane="random" departSpeed="10" laneChangeMode="5242898" />
    <vehicle id="vehicle_385" type="standard_car" route="S_to_N" depart="473.0" departLane="random" departSpeed="10" laneChangeMode="5242898" />
    <vehicle id="vehicle_648" type="standard_car" route="S_to_N" depart="473.0" departLane="random" departSpeed="10" laneChangeMode="5242898" />
    <vehicle id="vehicle_127" type="standard_car" route="S_to_N" depart="474.0" departLane="random" departSpeed="10" laneChangeMode="5242898" />
    <vehicle id="vehicle_556" type="standard_car" route="S_to_N" depart="474.0" departLane="random" departSpeed="10" laneChangeMode="5242898" />
    <vehicle id="vehicle_597" type="standard_car" route="S_to_N" depart="474.0" departLane="random" departSpeed="10" laneChangeMode="5242898" />
    <vehicle id="vehicle_596" type="standard_car" route="S_to_N" depart="475.0" departLane="random" departSpeed="10" laneChangeMode="5242898" />
    <vehicle id="vehicle_660" type="standard_car" route="S_to_N" depart="475.0" departLane="random" departSpeed="10" laneChangeMode="5242898" />
    <vehicle id="vehicle_383" type="standard_car" route="S_to_E" depart="477.0" departLane="random" departSpeed="10" laneChangeMode="5242898" />
    <vehicle id="vehicle_169" type="standard_car" route="S_to_N" depart="478.0" departLane="random" departSpeed="10" laneChangeMode="5242898" />
    <vehicle id="vehicle_676" type="standard_car" route="S_to_N" depart="480.0" departLane="random" departSpeed="10" laneChangeMode="5242898" />
    <vehicle id="vehicle_156" type="standard_car" route="S_to_N" depart="481.0" departLane="random" departSpeed="10" laneChangeMode="5242898" />
    <vehicle id="vehicle_705" type="standard_car" route="S_to_N" depart="482.0" departLane="random" departSpeed="10" laneChangeMode="5242898" />
    <vehicle id="vehicle_181" type="standard_car" route="S_to_N" depart="483.0" departLane="random" departSpeed="10" laneChangeMode="5242898" />
    <vehicle id="vehicle_759" type="standard_car" route="S_to_E" depart="483.0" departLane="random" departSpeed="10" laneChangeMode="5242898" />
    <vehicle id="vehicle_796" type="standard_car" route="S_to_N" depart="484.0" departLane="random" departSpeed="10" laneChangeMode="5242898" />
    <vehicle id="vehicle_938" type="standard_car" route="S_to_N" depart="485.0" departLane="random" departSpeed="10" laneChangeMode="5242898" />
    <vehicle id="vehicle_451" type="standard_car" route="S_to_N" depart="486.0" departLane="random" departSpeed="10" laneChangeMode="5242898" />
    <vehicle id="vehicle_766" type="standard_car" route="S_to_N" depart="487.0" departLane="random" departSpeed="10" laneChangeMode="5242898" />
    <vehicle id="vehicle_786" type="standard_car" route="S_to_W" depart="487.0" departLane="random" departSpeed="10" laneChangeMode="5242898" />
    <vehicle id="vehicle_235" type="standard_car" route="S_to_N" depart="488.0" departLane="random" departSpeed="10" laneChangeMode="5242898" />
    <vehicle id="vehicle_833" type="standard_car" route="S_to_E" depart="490.0" departLane="random" departSpeed="10" laneChangeMode="5242898" />
    <vehicle id="vehicle_190" type="standard_car" route="S_to_N" depart="492.0" departLane="random" departSpeed="10" laneChangeMode="5242898" />
    <vehicle id="vehicle_960" type="standard_car" route="S_to_N" depart="494.0" departLane="random" departSpeed="10" laneChangeMode="5242898" />
    <vehicle id="vehicle_370" type="standard_car" route="S_to_N" depart="495.0" departLane="random" departSpeed="10" laneChangeMode="5242898" />
    <vehicle id="vehicle_530" type="standard_car" route="S_to_N" depart="495.0" departLane="random" departSpeed="10" laneChangeMode="5242898" />
    <vehicle id="vehicle_217" type="standard_car" route="S_to_N" depart="496.0" departLane="random" departSpeed="10" laneChangeMode="5242898" />
    <vehicle id="vehicle_468" type="standard_car" route="S_to_E" depart="497.0" departLane="random" departSpeed="10" laneChangeMode="5242898" />
    <vehicle id="vehicle_551" type="standard_car" route="S_to_E" depart="499.0" departLane="random" departSpeed="10" laneChangeMode="5242898" />
    <vehicle id="vehicle_698" type="standard_car" route="S_to_N" depart="500.0" departLane="random" departSpeed="10" laneChangeMode="5242898" />
    <vehicle id="vehicle_743" type="standard_car" route="S_to_N" depart="501.0" departLane="random" departSpeed="10" laneChangeMode="5242898" />
    <vehicle id="vehicle_61" type="standard_car" route="S_to_N" depart="502.0" departLane="random" departSpeed="10" laneChangeMode="5242898" />
    <vehicle id="vehicle_478" type="standard_car" route="N_to_S" depart="504.0" departLane="random" departSpeed="10" laneChangeMode="5242898" />
    <vehicle id="vehicle_857" type="standard_car" route="S_to_W" depart="504.0" departLane="random" departSpeed="10" laneChangeMode="5242898" />
    <vehicle id="vehicle_276" type="standard_car" route="S_to_N" depart="505.0" departLane="random" departSpeed="10" laneChangeMode="5242898" />
    <vehicle id="vehicle_728" type="standard_car" route="S_to_W" depart="505.0" departLane="random" departSpeed="10" laneChangeMode="5242898" />
    <vehicle id="vehicle_377" type="standard_car" route="S_to_N" depart="508.0" departLane="random" departSpeed="10" laneChangeMode="5242898" />
    <vehicle id="vehicle_726" type="standard_car" route="S_to_W" depart="508.0" departLane="random" departSpeed="10" laneChangeMode="5242898" />
    <vehicle id="vehicle_52" type="standard_car" route="S_to_N" depart="510.0" departLane="random" departSpeed="10" laneChangeMode="5242898" />
    <vehicle id="vehicle_546" type="standard_car" route="S_to_N" depart="511.0" departLane="random" departSpeed="10" laneChangeMode="5242898" />
    <vehicle id="vehicle_164" type="standard_car" route="S_to_N" depart="512.0" departLane="random" departSpeed="10" laneChangeMode="5242898" />
    <vehicle id="vehicle_160" type="standard_car" route="S_to_N" depart="513.0" departLane="random" departSpeed="10" laneChangeMode="5242898" />
    <vehicle id="vehicle_462" type="standard_car" route="S_to_N" depart="513.0" departLane="random" departSpeed="10" laneChangeMode="5242898" />
    <vehicle id="vehicle_598" type="standard_car" route="S_to_N" depart="514.0" departLane="random" departSpeed="10" laneChangeMode="5242898" />
    <vehicle id="vehicle_144" type="standard_car" route="S_to_N" depart="515.0" departLane="random" departSpeed="10" laneChangeMode="5242898" />
    <vehicle id="vehicle_71" type="standard_car" route="S_to_W" depart="516.0" departLane="random" departSpeed="10" laneChangeMode="5242898" />
    <vehicle id="vehicle_213" type="standard_car" route="S_to_N" depart="517.0" departLane="random" departSpeed="10" laneChangeMode="5242898" />
    <vehicle id="vehicle_98" type="standard_car" route="S_to_N" depart="517.0" departLane="random" departSpeed="10" laneChangeMode="5242898" />
    <vehicle id="vehicle_83" type="standard_car" route="S_to_N" depart="518.0" departLane="random" departSpeed="10" laneChangeMode="5242898" />
    <vehicle id="vehicle_281" type="standard_car" route="S_to_N" depart="519.0" departLane="random" departSpeed="10" laneChangeMode="5242898" />
    <vehicle id="vehicle_422" type="standard_car" route="S_to_W" depart="519.0" departLane="random" departSpeed="10" laneChangeMode="5242898" />
    <vehicle id="vehicle_510" type="standard_car" route="S_to_N" depart="519.0" departLane="random" departSpeed="10" laneChangeMode="5242898" />
    <vehicle id="vehicle_6" type="standard_car" route="S_to_N" depart="519.0" departLane="random" departSpeed="10" laneChangeMode="5242898" />
    <vehicle id="vehicle_463" type="standard_car" route="S_to_N" depart="520.0" departLane="random" departSpeed="10" laneChangeMode="5242898" />
    <vehicle id="vehicle_957" type="standard_car" route="S_to_N" depart="520.0" departLane="random" departSpeed="10" laneChangeMode="5242898" />
    <vehicle id="vehicle_438" type="standard_car" route="S_to_W" depart="521.0" departLane="random" departSpeed="10" laneChangeMode="5242898" />
    <vehicle id="vehicle_845" type="standard_car" route="S_to_N" depart="521.0" departLane="random" departSpeed="10" laneChangeMode="5242898" />
    <vehicle id="vehicle_336" type="standard_car" route="S_to_N" depart="524.0" departLane="random" departSpeed="10" laneChangeMode="5242898" />
    <vehicle id="vehicle_815" type="standard_car" route="S_to_N" depart="524.0" departLane="random" departSpeed="10" laneChangeMode="5242898" />
    <vehicle id="vehicle_609" type="standard_car" route="S_to_N" depart="529.0" departLane="random" departSpeed="10" laneChangeMode="5242898" />
    <vehicle id="vehicle_700" type="standard_car" route="S_to_N" depart="529.0" departLane="random" departSpeed="10" laneChangeMode="5242898" />
    <vehicle id="vehicle_209" type="standard_car" route="S_to_N" depart="530.0" departLane="random" departSpeed="10" laneChangeMode="5242898" />
    <vehicle id="vehicle_21" type="standard_car" route="S_to_N" depart="530.0" departLane="random" departSpeed="10" laneChangeMode="5242898" />
    <vehicle id="vehicle_940" type="standard_car" route="S_to_W" depart="530.0" departLane="random" departSpeed="10" laneChangeMode="5242898" />
    <vehicle id="vehicle_989" type="standard_car" route="S_to_N" depart="530.0" departLane="random" departSpeed="10" laneChangeMode="5242898" />
    <vehicle id="vehicle_45" type="standard_car" route="S_to_E" depart="531.0" departLane="random" departSpeed="10" laneChangeMode="5242898" />
    <vehicle id="vehicle_532" type="standard_car" route="S_to_E" depart="531.0" departLane="random" departSpeed="10" laneChangeMode="5242898" />
    <vehicle id="vehicle_56" type="standard_car" route="S_to_N" depart="532.0" departLane="random" departSpeed="10" laneChangeMode="5242898" />
    <vehicle id="vehicle_659" type="standard_car" route="S_to_N" depart="532.0" departLane="random" departSpeed="10" laneChangeMode="5242898" />
    <vehicle id="vehicle_140" type="standard_car" route="S_to_N" depart="533.0" departLane="random" departSpeed="10" laneChangeMode="5242898" />
    <vehicle id="vehicle_194" type="standard_car" route="S_to_E" depart="533.0" departLane="random" departSpeed="10" laneChangeMode="5242898" />
    <vehicle id="vehicle_253" type="standard_car" route="S_to_N" depart="534.0" departLane="random" departSpeed="10" laneChangeMode="5242898" />
    <vehicle id="vehicle_210" type="standard_car" route="S_to_N" depart="535.0" departLane="random" departSpeed="10" laneChangeMode="5242898" />
    <vehicle id="vehicle_628" type="standard_car" route="S_to_N" depart="537.0" departLane="random" departSpeed="10" laneChangeMode="5242898" />
    <vehicle id="vehicle_784" type="standard_car" route="S_to_N" depart="537.0" departLane="random" departSpeed="10" laneChangeMode="5242898" />
    <vehicle id="vehicle_355" type="standard_car" route="S_to_N" depart="538.0" departLane="random" departSpeed="10" laneChangeMode="5242898" />
    <vehicle id="vehicle_492" type="standard_car" route="S_to_N" depart="538.0" departLane="random" departSpeed="10" laneChangeMode="5242898" />
    <vehicle id="vehicle_684" type="standard_car" route="S_to_N" depart="538.0" departLane="random" departSpeed="10" laneChangeMode="5242898" />
    <vehicle id="vehicle_663" type="standard_car" route="S_to_N" depart="541.0" departLane="random" departSpeed="10" laneChangeMode="5242898" />
    <vehicle id="vehicle_111" type="standard_car" route="S_to_W" depart="542.0" departLane="random" departSpeed="10" laneChangeMode="5242898" />
    <vehicle id="vehicle_507" type="standard_car" route="S_to_N" depart="543.0" departLane="random" departSpeed="10" laneChangeMode="5242898" />
    <vehicle id="vehicle_862" type="standard_car" route="S_to_W" depart="543.0" departLane="random" departSpeed="10" laneChangeMode="5242898" />
    <vehicle id="vehicle_514" type="standard_car" route="S_to_N" depart="544.0" departLane="random" departSpeed="10" laneChangeMode="5242898" />
    <vehicle id="vehicle_762" type="standard_car" route="S_to_N" depart="544.0" departLane="random" departSpeed="10" laneChangeMode="5242898" />
    <vehicle id="vehicle_365" type="standard_car" route="N_to_S" depart="546.0" departLane="random" departSpeed="10" laneChangeMode="5242898" />
    <vehicle id="vehicle_642" type="standard_car" route="S_to_N" depart="547.0" departLane="random" departSpeed="10" laneChangeMode="5242898" />
    <vehicle id="vehicle_120" type="standard_car" route="N_to_S" depart="548.0" departLane="random" departSpeed="10" laneChangeMode="5242898" />
    <vehicle id="vehicle_155" type="standard_car" route="S_to_N" depart="550.0" departLane="random" departSpeed="10" laneChangeMode="5242898" />
    <vehicle id="vehicle_393" type="standard_car" route="S_to_N" depart="550.0" departLane="random" departSpeed="10" laneChangeMode="5242898" />
    <vehicle id="vehicle_614" type="standard_car" route="S_to_W" depart="550.0" departLane="random" departSpeed="10" laneChangeMode="5242898" />
    <vehicle id="vehicle_646" type="standard_car" route="S_to_N" depart="551.0" departLane="random" departSpeed="10" laneChangeMode="5242898" />
    <vehicle id="vehicle_520" type="standard_car" route="N_to_S" depart="553.0" departLane="random" departSpeed="10" laneChangeMode="5242898" />
    <vehicle id="vehicle_594" type="standard_car" route="S_to_N" depart="556.0" departLane="random" departSpeed="10" laneChangeMode="5242898" />
    <vehicle id="vehicle_126" type="standard_car" route="S_to_N" depart="558.0" departLane="random" departSpeed="10" laneChangeMode="5242898" />
    <vehicle id="vehicle_418" type="standard_car" route="S_to_N" depart="558.0" departLane="random" departSpeed="10" laneChangeMode="5242898" />
    <vehicle id="vehicle_586" type="standard_car" route="N_to_E" depart="559.0" departLane="random" departSpeed="10" laneChangeMode="5242898" />
    <vehicle id="vehicle_836" type="standard_car" route="S_to_W" depart="560.0" departLane="random" departSpeed="10" laneChangeMode="5242898" />
    <vehicle id="vehicle_343" type="standard_car" route="S_to_N" depart="562.0" departLane="random" departSpeed="10" laneChangeMode="5242898" />
    <vehicle id="vehicle_148" type="standard_car" route="S_to_N" depart="563.0" departLane="random" departSpeed="10" laneChangeMode="5242898" />
    <vehicle id="vehicle_477" type="standard_car" route="S_to_N" depart="563.0" departLane="random" departSpeed="10" laneChangeMode="5242898" />
    <vehicle id="vehicle_428" type="standard_car" route="S_to_W" depart="565.0" departLane="random" departSpeed="10" laneChangeMode="5242898" />
    <vehicle id="vehicle_75" type="standard_car" route="N_to_S" depart="566.0" departLane="random" departSpeed="10" laneChangeMode="5242898" />
    <vehicle id="vehicle_278" type="standard_car" route="S_to_N" depart="567.0" departLane="random" departSpeed="10" laneChangeMode="5242898" />
    <vehicle id="vehicle_70" type="standard_car" route="S_to_N" depart="570.0" departLane="random" departSpeed="10" laneChangeMode="5242898" />
    <vehicle id="vehicle_771" type="standard_car" route="S_to_N" depart="570.0" departLane="random" departSpeed="10" laneChangeMode="5242898" />
    <vehicle id="vehicle_905" type="standard_car" route="S_to_N" depart="570.0" departLane="random" departSpeed="10" laneChangeMode="5242898" />
    <vehicle id="vehicle_651" type="standard_car" route="S_to_N" depart="571.0" departLane="random" departSpeed="10" laneChangeMode="5242898" />
    <vehicle id="vehicle_633" type="standard_car" route="S_to_N" depart="575.0" departLane="random" departSpeed="10" laneChangeMode="5242898" />
    <vehicle id="vehicle_983" type="standard_car" route="S_to_E" depart="577.0" departLane="random" departSpeed="10" laneChangeMode="5242898" />
    <vehicle id="vehicle_448" type="standard_car" route="S_to_N" depart="578.0" departLane="random" departSpeed="10" laneChangeMode="5242898" />
    <vehicle id="vehicle_825" type="standard_car" route="S_to_E" depart="578.0" departLane="random" departSpeed="10" laneChangeMode="5242898" />
    <vehicle id="vehicle_211" type="standard_car" route="S_to_N" depart="579.0" departLane="random" departSpeed="10" laneChangeMode="5242898" />
    <vehicle id="vehicle_864" type="standard_car" route="S_to_N" depart="580.0" departLane="random" departSpeed="10" laneChangeMode="5242898" />
    <vehicle id="vehicle_82" type="standard_car" route="S_to_N" depart="581.0" departLane="random" departSpeed="10" laneChangeMode="5242898" />
    <vehicle id="vehicle_262" type="standard_car" route="S_to_N" depart="583.0" departLane="random" departSpeed="10" laneChangeMode="5242898" />
    <vehicle id="vehicle_980" type="standard_car" route="N_to_S" depart="583.0" departLane="random" departSpeed="10" laneChangeMode="5242898" />
    <vehicle id="vehicle_417" type="standard_car" route="S_to_N" depart="585.0" departLane="random" departSpeed="10" laneChangeMode="5242898" />
    <vehicle id="vehicle_927" type="standard_car" route="S_to_N" depart="586.0" departLane="random" departSpeed="10" laneChangeMode="5242898" />
    <vehicle id="vehicle_680" type="standard_car" route="S_to_N" depart="587.0" departLane="random" departSpeed="10" laneChangeMode="5242898" />
    <vehicle id="vehicle_94" type="standard_car" route="S_to_N" depart="589.0" departLane="random" departSpeed="10" laneChangeMode="5242898" />
    <vehicle id="vehicle_550" type="standard_car" route="S_to_N" depart="591.0" departLane="random" departSpeed="10" laneChangeMode="5242898" />
    <vehicle id="vehicle_632" type="standard_car" route="S_to_N" depart="592.0" departLane="random" departSpeed="10" laneChangeMode="5242898" />
    <vehicle id="vehicle_580" type="standard_car" route="N_to_W" depart="593.0" departLane="random" departSpeed="10" laneChangeMode="5242898" />
    <vehicle id="vehicle_616" type="standard_car" route="N_to_S" depart="593.0" departLane="random" departSpeed="10" laneChangeMode="5242898" />
    <vehicle id="vehicle_117" type="standard_car" route="S_to_N" depart="595.0" departLane="random" departSpeed="10" laneChangeMode="5242898" />
    <vehicle id="vehicle_63" type="standard_car" route="S_to_N" depart="595.0" departLane="random" departSpeed="10" laneChangeMode="5242898" />
    <vehicle id="vehicle_695" type="standard_car" route="S_to_E" depart="595.0" departLane="random" departSpeed="10" laneChangeMode="5242898" />
    <vehicle id="vehicle_38" type="standard_car" route="S_to_N" depart="596.0" departLane="random" departSpeed="10" laneChangeMode="5242898" />
    <vehicle id="vehicle_222" type="standard_car" route="S_to_N" depart="597.0" departLane="random" departSpeed="10" laneChangeMode="5242898" />
    <vehicle id="vehicle_667" type="standard_car" route="S_to_N" depart="597.0" departLane="random" departSpeed="10" laneChangeMode="5242898" />
    <vehicle id="vehicle_115" type="standard_car" route="S_to_N" depart="598.0" departLane="random" departSpeed="10" laneChangeMode="5242898" />
    <vehicle id="vehicle_751" type="standard_car" route="S_to_N" depart="598.0" departLane="random" departSpeed="10" laneChangeMode="5242898" />
    <vehicle id="vehicle_904" type="standard_car" route="S_to_N" depart="599.0" departLane="random" departSpeed="10" laneChangeMode="5242898" />
    <vehicle id="vehicle_841" type="standard_car" route="N_to_E" depart="601.0" departLane="random" departSpeed="10" laneChangeMode="5242898" />
    <vehicle id="vehicle_545" type="standard_car" route="S_to_N" depart="602.0" departLane="random" departSpeed="10" laneChangeMode="5242898" />