                
<routes>
            <vType accel="1.0" decel="4.5" id="standard_car" length="5.0" minGap="2.5" maxSpeed="25" sigma="0.5" laneChangeMode="5242898"/>
            
            <!-- route definition (the car route) -->

            <route id="W_to_N" edges="W_in N_out"/>
            <route id="W_to_E" edges="W_in E_out"/>
            <route id="W_to_S" edges="W_in S_out"/>
            <route id="N_to_W" edges="N_in W_out"/>
            <route id="N_to_E" edges="N_in E_out"/>
            <route id="N_to_S" edges="N_in S_out"/>
            <route id="E_to_W" edges="E_in W_out"/>
            <route id="E_to_N" edges="E_in N_out"/>
            <route id="E_to_S" edges="E_in S_out"/>
            <route id="S_to_W" edges="S_in W_out"/>
            <route id="S_to_N" edges="S_in N_out"/>
            <route id="S_to_E" edges="S_in E_out"/>
    <vehicle id="vehicle_561_rand" type="standard_car" route="S_to_N" depart="7" departLane="random" departSpeed="10" laneChangeMode="5242898" />
    <vehicle id="vehicle_53_rand" type="standard_car" route="N_to_S" depart="9" departLane="random" departSpeed="10" laneChangeMode="5242898" />
    <vehicle id="vehicle_52_rand" type="standard_car" route="E_to_W" depart="19" departLane="random" departSpeed="10" laneChangeMode="5242898" />
    <vehicle id="vehicle_153_rand" type="standard_car" route="E_to_W" depart="24" departLane="random" departSpeed="10" laneChangeMode="5242898" />
    <vehicle id="vehicle_167_rand" type="standard_car" route="N_to_E" depart="25" departLane="random" departSpeed="10" laneChangeMode="5242898" />
    <vehicle id="vehicle_197_rand" type="standard_car" route="E_to_S" depart="32" departLane="random" departSpeed="10" laneChangeMode="5242898" />
    <vehicle id="vehicle_216_rand" type="standard_car" route="W_to_E" depart="42" departLane="random" departSpeed="10" laneChangeMode="5242898" />
    <vehicle id="vehicle_464_rand" type="standard_car" route="N_to_S" depart="46" departLane="random" departSpeed="10" laneChangeMode="5242898" />
    <vehicle id="vehicle_39_rand" type="standard_car" route="S_to_N" depart="49" departLane="random" departSpeed="10" laneChangeMode="5242898" />
    <vehicle id="vehicle_383_rand" type="standard_car" route="W_to_E" depart="53" departLane="random" departSpeed="10" laneChangeMode="5242898" />
    <vehicle id="vehicle_308_rand" type="standard_car" route="N_to_S" depart="56" departLane="random" departSpeed="10" laneChangeMode="5242898" />
    <vehicle id="vehicle_521_rand" type="standard_car" route="E_to_W" depart="56" departLane="random" departSpeed="10" laneChangeMode="5242898" />
    <vehicle id="vehicle_83_rand" type="standard_car" route="S_to_N" depart="57" departLane="random" departSpeed="10" laneChangeMode="5242898" />
    <vehicle id="vehicle_482_rand" type="standard_car" route="E_to_W" depart="67" departLane="random" departSpeed="10" laneChangeMode="5242898" />
    <vehicle id="vehicle_202_rand" type="standard_car" route="S_to_N" depart="78" departLane="random" departSpeed="10" laneChangeMode="5242898" />
    <vehicle id="vehicle_496_rand" type="standard_car" route="W_to_E" depart="89" departLane="random" departSpeed="10" laneChangeMode="5242898" />
    <vehicle id="vehicle_80_rand" type="standard_car" route="E_to_W" depart="92" departLane="random" departSpeed="10" laneChangeMode="5242898" />
    <vehicle id="vehicle_68_rand" type="standard_car" route="S_to_N" depart="96" departLane="random" departSpeed="10" laneChangeMode="5242898" />
    <vehicle id="vehicle_420_rand" type="standard_car" route="W_to_E" depart="105" departLane="random" departSpeed="10" laneChangeMode="5242898" />
    <vehicle id="vehicle_73_rand" type="standard_car" route="N_to_W" depart="105" departLane="random" departSpeed="10" laneChangeMode="5242898" />
    <vehicle id="vehicle_188_rand" type="standard_car" route="W_to_E" depart="113" departLane="random" departSpeed="10" laneChangeMode="5242898" />
    <vehicle id="vehicle_468_rand" type="standard_car" route="E_to_W" depart="115" departLane="random" departSpeed="10" laneChangeMode="5242898" />
    <vehicle id="vehicle_531_rand" type="standard_car" route="E_to_W" depart="126" departLane="random" departSpeed="10" laneChangeMode="5242898" />
    <vehicle id="vehicle_194_rand" type="standard_car" route="S_to_N" depart="144" departLane="random" departSpeed="10" laneChangeMode="5242898" />
    <vehicle id="vehicle_110_rand" type="standard_car" route="N_to_W" depart="147" departLane="random" departSpeed="10" laneChangeMode="5242898" />
    <vehicle id="vehicle_461_rand" type="standard_car" route="W_to_S" depart="149" departLane="random" departSpeed="10" laneChangeMode="5242898" />
    <vehicle id="vehicle_217_rand" type="standard_car" route="W_to_E" depart="153" departLane="random" departSpeed="10" laneChangeMode="5242898" />
    <vehicle id="vehicle_408_rand" type="standard_car" route="E_to_W" depart="159" departLane="random" departSpeed="10" laneChangeMode="5242898" />
    <vehicle id="vehicle_155_rand" type="standard_car" route="W_to_E" depart="167" departLane="random" departSpeed="10" laneChangeMode="5242898" />
    <vehicle id="vehicle_259_rand" type="standard_car" route="N_to_S" depart="175" departLane="random" departSpeed="10" laneChangeMode="5242898" />
    <vehicle id="vehicle_411_rand" type="standard_car" route="N_to_S" depart="177" departLane="random" departSpeed="10" laneChangeMode="5242898" />
    <vehicle id="vehicle_575_rand" type="standard_car" route="S_to_N" depart="179" departLane="random" departSpeed="10" laneChangeMode="5242898" />
    <vehicle id="vehicle_373_rand" type="standard_car" route="E_to_W" depart="182" departLane="random" departSpeed="10" laneChangeMode="5242898" />
    <vehicle id="vehicle_32_rand" type="standard_car" route="E_to_W" depart="187" departLane="random" departSpeed="10" laneChangeMode="5242898" />
    <vehicle id="vehicle_317_rand" type="standard_car" route="E_to_W" depart="189" departLane="random" departSpeed="10" laneChangeMode="5242898" />
    <vehicle id="vehicle_123_rand" type="standard_car" route="S_to_N" depart="191" departLane="random" departSpeed="10" laneChangeMode="5242898" />
    <vehicle id="vehicle_115_rand" type="standard_car" route="N_to_E" depart="196" departLane="random" departSpeed="10" laneChangeMode="5242898" />
    <vehicle id="vehicle_237_rand" type="standard_car" route="W_to_S" depart="198" departLane="random" departSpeed="10" laneChangeMode="5242898" />
    <vehicle id="vehicle_331_rand" type="standard_car" route="S_to_N" depart="222" departLane="random" departSpeed="10" laneChangeMode="5242898" />
    <vehicle id="vehicle_201_rand" type="standard_car" route="E_to_W" depart="228" departLane="random" departSpeed="10" laneChangeMode="5242898" />
    <vehicle id="vehicle_161_rand" type="standard_car" route="S_to_N" depart="244" departLane="random" departSpeed="10" laneChangeMode="5242898" />
    <vehicle id="vehicle_399_rand" type="standard_car" route="S_to_N" depart="251" departLane="random" departSpeed="10" laneChangeMode="5242898" />
    <vehicle id="vehicle_451_rand" type="standard_car" route="E_to_N" depart="257" departLane="random" departSpeed="10" laneChangeMode="5242898" />
    <vehicle id="vehicle_505_rand" type="standard_car" route="N_to_S" depart="285" departLane="random" departSpeed="10" laneChangeMode="5242898" />
    <vehicle id="vehicle_51_rand" type="standard_car" route="W_to_E" depart="298" departLane="random" departSpeed="10" laneChangeMode="5242898" />
    <vehicle id="vehicle_577_rand" type="standard_car" route="W_to_E" depart="300" departLane="random" departSpeed="10" laneChangeMode="5242898" />
    <vehicle id="vehicle_79_gaussian" type="standard_car" route="S_to_W" depart="317" departLane="random" departSpeed="10" laneChangeMode="5242898" />
    <vehicle id="vehicle_128_rand" type="standard_car" route="S_to_N" depart="320" departLane="random" departSpeed="10" laneChangeMode="5242898" />
    <vehicle id="vehicle_21_rand" type="standard_car" route="E_to_S" depart="324" departLane="random" departSpeed="10" laneChangeMode="5242898" />
    <vehicle id="vehicle_311_rand" type="standard_car" route="S_to_N" depart="326" departLane="random" departSpeed="10" laneChangeMode="5242898" />
    <vehicle id="vehicle_130_rand" type="standard_car" route="S_to_E" depart="331" departLane="random" departSpeed="10" laneChangeMode="5242898" />
    <vehicle id="vehicle_335_rand" type="standard_car" route="W_to_E" depart="342" departLane="random" departSpeed="10" laneChangeMode="5242898" />
    <vehicle id="vehicle_284_rand" type="standard_car" route="S_to_W" depart="345" departLane="random" departSpeed="10" laneChangeMode="5242898" />
    <vehicle id="vehicle_387_rand" type="standard_car" route="S_to_N" depart="348" departLane="random" departSpeed="10" laneChangeMode="5242898" />
    <vehicle id="vehicle_106_rand" type="standard_car" route="S_to_W" depart="350" departLane="random" departSpeed="10" laneChangeMode="5242898" />
    <vehicle id="vehicle_173_gaussian" type="standard_car" route="S_to_E" depart="359" departLane="random" departSpeed="10" laneChangeMode="5242898" />
    <vehicle id="vehicle_129_rand" type="standard_car" route="W_to_S" depart="373" departLane="random" departSpeed="10" laneChangeMode="5242898" />
    <vehicle id="vehicle_267_gaussian" type="standard_car" route="S_to_N" depart="375" departLane="random" departSpeed="10" laneChangeMode="5242898" />
    <vehicle id="vehicle_25_gaussian" type="standard_car" route="S_to_E" depart="378" departLane="random" departSpeed="10" laneChangeMode="5242898" />
    <vehicle id="vehicle_352_rand" type="standard_car" route="S_to_E" depart="379" departLane="random" departSpeed="10" laneChangeMode="5242898" />
    <vehicle id="vehicle_239_gaussian" type="standard_car" route="S_to_E" depart="386" departLane="random" departSpeed="10" laneChangeMode="5242898" />
    <vehicle id="vehicle_0_gaussian" type="standard_car" route="S_to_N" depart="388" departLane="random" departSpeed="10" laneChangeMode="5242898" />
    <vehicle id="vehicle_449_rand" type="standard_car" route="S_to_N" depart="390" departLane="random" departSpeed="10" laneChangeMode="5242898" />
    <vehicle id="vehicle_12_rand" type="standard_car" route="N_to_S" depart="392" departLane="random" departSpeed="10" laneChangeMode="5242898" />
    <vehicle id="vehicle_270_gaussian" type="standard_car" route="S_to_E" depart="392" departLane="random" departSpeed="10" laneChangeMode="5242898" />
    <vehicle id="vehicle_519_rand" type="standard_car" route="E_to_S" depart="393" departLane="random" departSpeed="10" laneChangeMode="5242898" />
    <vehicle id="vehicle_479_rand" type="standard_car" route="E_to_W" depart="394" departLane="random" departSpeed="10" laneChangeMode="5242898" />
    <vehicle id="vehicle_87_gaussian" type="standard_car" route="S_to_N" depart="396" departLane="random" departSpeed="10" laneChangeMode="5242898" />
    <vehicle id="vehicle_27_gaussian" type="standard_car" route="S_to_N" depart="398" departLane="random" departSpeed="10" laneChangeMode="5242898" />
    <vehicle id="vehicle_361_rand" type="standard_car" route="N_to_S" depart="399" departLane="random" departSpeed="10" laneChangeMode="5242898" />
    <vehicle id="vehicle_266_gaussian" type="standard_car" route="S_to_E" depart="402" departLane="random" departSpeed="10" laneChangeMode="5242898" />
    <vehicle id="vehicle_487_rand" type="standard_car" route="W_to_E" depart="403" departLane="random" departSpeed="10" laneChangeMode="5242898" />
    <vehicle id="vehicle_310_gaussian" type="standard_car" route="S_to_N" depart="408" departLane="random" departSpeed="10" laneChangeMode="5242898" />
    <vehicle id="vehicle_441_rand" type="standard_car" route="S_to_N" depart="408" departLane="random" departSpeed="10" laneChangeMode="5242898" />
    <vehicle id="vehicle_24_gaussian" type="standard_car" route="S_to_N" depart="410" departLane="random" departSpeed="10" laneChangeMode="5242898" />
    <vehicle id="vehicle_257_rand" type="standard_car" route="E_to_W" depart="412" departLane="random" departSpeed="10" laneChangeMode="5242898" />
    <vehicle id="vehicle_232_gaussian" type="standard_car" route="S_to_N" depart="414" departLane="random" departSpeed="10" laneChangeMode="5242898" />
    <vehicle id="vehicle_302_gaussian" type="standard_car" route="S_to_W" depart="416" departLane="random" departSpeed="10" laneChangeMode="5242898" />
    <vehicle id="vehicle_201_gaussian" type="standard_car" route="S_to_E" depart="417" departLane="random" departSpeed="10" laneChangeMode="5242898" />
    <vehicle id="vehicle_271_gaussian" type="standard_car" route="S_to_N" depart="418" departLane="random" departSpeed="10" laneChangeMode="5242898" />
    <vehicle id="vehicle_397_gaussian" type="standard_car" route="S_to_N" depart="419" departLane="random" departSpeed="10" laneChangeMode="5242898" />
    <vehicle id="vehicle_446_rand" type="standard_car" route="S_to_N" depart="419" departLane="random" departSpeed="10" laneChangeMode="5242898" />
    <vehicle id="vehicle_28_rand" type="standard_car" route="N_to_S" depart="424" departLane="random" departSpeed="10" laneChangeMode="5242898" />
    <vehicle id="vehicle_594_rand" type="standard_car" route="E_to_W" depart="425" departLane="random" departSpeed="10" laneChangeMode="5242898" />
    <vehicle id="vehicle_146_gaussian" type="standard_car" route="S_to_W" depart="427" departLane="random" departSpeed="10" laneChangeMode="5242898" />
    <vehicle id="vehicle_131_rand" type="standard_car" route="E_to_W" depart="430" departLane="random" departSpeed="10" laneChangeMode="5242898" />
    <vehicle id="vehicle_224_gaussian" type="standard_car" route="S_to_N" depart="430" departLane="random" departSpeed="10" laneChangeMode="5242898" />
    <vehicle id="vehicle_160_gaussian" type="standard_car" route="S_to_N" depart="432" departLane="random" departSpeed="10" laneChangeMode="5242898" />
    <vehicle id="vehicle_290_gaussian" type="standard_car" route="S_to_N" depart="432" departLane="random" departSpeed="10" laneChangeMode="5242898" />
    <vehicle id="vehicle_111_gaussian" type="standard_car" route="S_to_E" depart="433" departLane="random" departSpeed="10" laneChangeMode="5242898" />
    <vehicle id="vehicle_3_gaussian" type="standard_car" route="S_to_N" depart="433" departLane="random" departSpeed="10" laneChangeMode="5242898" />
    <vehicle id="vehicle_163_rand" type="standard_car" route="N_to_S" depart="434" departLane="random" departSpeed="10" laneChangeMode="5242898" />
    <vehicle id="vehicle_122_rand" type="standard_car" route="W_to_E" depart="435" departLane="random" departSpeed="10" laneChangeMode="5242898" />
    <vehicle id="vehicle_303_rand" type="standard_car" route="E_to_S" depart="437" departLane="random" departSpeed="10" laneChangeMode="5242898" />
    <vehicle id="vehicle_98_gaussian" type="standard_car" route="S_to_N" depart="437" departLane="random" departSpeed="10" laneChangeMode="5242898" />
    <vehicle id="vehicle_434_rand" type="standard_car" route="E_to_W" depart="439" departLane="random" departSpeed="10" laneChangeMode="5242898" />
    <vehicle id="vehicle_515_rand" type="standard_car" route="S_to_E" depart="440" departLane="random" departSpeed="10" laneChangeMode="5242898" />
    <vehicle id="vehicle_317_gaussian" type="standard_car" route="S_to_N" depart="441" departLane="random" departSpeed="10" laneChangeMode="5242898" />
    <vehicle id="vehicle_534_rand" type="standard_car" route="E_to_N" depart="447" departLane="random" departSpeed="10" laneChangeMode="5242898" />
    <vehicle id="vehicle_165_gaussian" type="standard_car" route="S_to_N" depart="448" departLane="random" departSpeed="10" laneChangeMode="5242898" />
    <vehicle id="vehicle_273_gaussian" type="standard_car" route="S_to_N" depart="448" departLane="random" departSpeed="10" laneChangeMode="5242898" />
    <vehicle id="vehicle_166_rand" type="standard_car" route="E_to_S" depart="449" departLane="random" departSpeed="10" laneChangeMode="5242898" />
    <vehicle id="vehicle_18_gaussian" type="standard_car" route="S_to_N" depart="450" departLane="random" departSpeed="10" laneChangeMode="5242898" />
    <vehicle id="vehicle_357_rand" type="standard_car" route="W_to_S" depart="451" departLane="random" departSpeed="10" laneChangeMode="5242898" />
    <vehicle id="vehicle_183_gaussian" type="standard_car" route="S_to_W" depart="455" departLane="random" departSpeed="10" laneChangeMode="5242898" />
    <vehicle id="vehicle_28_gaussian" type="standard_car" route="S_to_N" depart="457" departLane="random" departSpeed="10" laneChangeMode="5242898" />
    <vehicle id="vehicle_29_gaussian" type="standard_car" route="S_to_N" depart="460" departLane="random" departSpeed="10" laneChangeMode="5242898" />
    <vehicle id="vehicle_30_rand" type="standard_car" route="E_to_N" depart="461" departLane="random" departSpeed="10" laneChangeMode="5242898" />
    <vehicle id="vehicle_481_rand" type="standard_car" route="E_to_W" depart="462" departLane="random" departSpeed="10" laneChangeMode="5242898" />
    <vehicle id="vehicle_569_rand" type="standard_car" route="N_to_S" depart="465" departLane="random" departSpeed="10" laneChangeMode="5242898" />
    <vehicle id="vehicle_599_rand" type="standard_car" route="N_to_S" depart="465" departLane="random" departSpeed="10" laneChangeMode="5242898" />
    <vehicle id="vehicle_332_gaussian" type="standard_car" route="S_to_N" depart="466" departLane="random" departSpeed="10" laneChangeMode="5242898" />
    <vehicle id="vehicle_96_gaussian" type="standard_car" route="S_to_N" depart="467" departLane="random" departSpeed="10" laneChangeMode="5242898" />
    <vehicle id="vehicle_394_gaussian" type="standard_car" route="S_to_N" depart="468" departLane="random" departSpeed="10" laneChangeMode="5242898" />
    <vehicle id="vehicle_377_gaussian" type="standard_car" route="S_to_N" depart="470" departLane="random" departSpeed="10" laneChangeMode="5242898" />
    <vehicle id="vehicle_155_gaussian" type="standard_car" route="S_to_N" depart="471" departLane="random" departSpeed="10" laneChangeMode="5242898" />
    <vehicle id="vehicle_202_gaussian" type="standard_car" route="S_to_N" depart="473" departLane="random" departSpeed="10" laneChangeMode="5242898" />
    <vehicle id="vehicle_110_gaussian" type="standard_car" route="S_to_N" depart="474" departLane="random" departSpeed="10" laneChangeMode="5242898" />
    <vehicle id="vehicle_151_gaussian" type="standard_car" route="S_to_N" depart="474" departLane="random" departSpeed="10" laneChangeMode="5242898" />
    <vehicle id="vehicle_15_rand" type="standard_car" route="W_to_E" depart="474" departLane="random" departSpeed="10" laneChangeMode="5242898" />
    <vehicle id="vehicle_364_rand" type="standard_car" route="E_to_W" depart="474" departLane="random" departSpeed="10" laneChangeMode="5242898" />
    <vehicle id="vehicle_150_gaussian" type="standard_car" route="S_to_N" depart="475" departLane="random" departSpeed="10" laneChangeMode="5242898" />
    <vehicle id="vehicle_214_gaussian" type="standard_car" route="S_to_N" depart="475" departLane="random" departSpeed="10" laneChangeMode="5242898" />
    <vehicle id="vehicle_277_rand" type="standard_car" route="N_to_S" depart="478" departLane="random" departSpeed="10" laneChangeMode="5242898" />
    <vehicle id="vehicle_230_gaussian" type="standard_car" route="S_to_N" depart="480" departLane="random" departSpeed="10" laneChangeMode="5242898" />
    <vehicle id="vehicle_259_gaussian" type="standard_car" route="S_to_N" depart="482" departLane="random" departSpeed="10" laneChangeMode="5242898" />
    <vehicle id="vehicle_313_gaussian" type="standard_car" route="S_to_E" depart="483" departLane="random" departSpeed="10" laneChangeMode="5242898" />
    <vehicle id="vehicle_350_gaussian" type="standard_car" route="S_to_N" depart="484" departLane="random" departSpeed="10" laneChangeMode="5242898" />
    <vehicle id="vehicle_320_gaussian" type="standard_car" route="S_to_N" depart="487" departLane="random" departSpeed="10" laneChangeMode="5242898" />
    <vehicle id="vehicle_340_gaussian" type="standard_car" route="S_to_W" depart="487" departLane="random" departSpeed="10" laneChangeMode="5242898" />
    <vehicle id="vehicle_387_gaussian" type="standard_car" route="S_to_E" depart="490" departLane="random" departSpeed="10" laneChangeMode="5242898" />
    <vehicle id="vehicle_239_rand" type="standard_car" route="E_to_N" depart="495" departLane="random" departSpeed="10" laneChangeMode="5242898" />
    <vehicle id="vehicle_84_gaussian" type="standard_car" route="S_to_N" depart="495" departLane="random" departSpeed="10" laneChangeMode="5242898" />
    <vehicle id="vehicle_22_gaussian" type="standard_car" route="S_to_E" depart="497" departLane="random" departSpeed="10" laneChangeMode="5242898" />
    <vehicle id="vehicle_422_rand" type="standard_car" route="S_to_N" depart="498" departLane="random" departSpeed="10" laneChangeMode="5242898" />
    <vehicle id="vehicle_105_gaussian" type="standard_car" route="S_to_E" depart="499" departLane="random" departSpeed="10" laneChangeMode="5242898" />
    <vehicle id="vehicle_252_gaussian" type="standard_car" route="S_to_N" depart="500" departLane="random" departSpeed="10" laneChangeMode="5242898" />
    <vehicle id="vehicle_297_gaussian" type="standard_car" route="S_to_N" depart="501" departLane="random" departSpeed="10" laneChangeMode="5242898" />
    <vehicle id="vehicle_32_gaussian" type="standard_car" route="N_to_S" depart="504" departLane="random" departSpeed="10" laneChangeMode="5242898" />
    <vehicle id="vehicle_282_gaussian" type="standard_car" route="S_to_W" depart="505" departLane="random" departSpeed="10" laneChangeMode="5242898" />
    <vehicle id="vehicle_11_rand" type="standard_car" route="E_to_W" depart="506" departLane="random" departSpeed="10" laneChangeMode="5242898" />
    <vehicle id="vehicle_394_rand" type="standard_car" route="E_to_W" depart="506" departLane="random" departSpeed="10" laneChangeMode="5242898" />
    <vehicle id="vehicle_280_gaussian" type="standard_car" route="S_to_W" depart="508" departLane="random" departSpeed="10" laneChangeMode="5242898" />
    <vehicle id="vehicle_100_gaussian" type="standard_car" route="S_to_N" depart="511" departLane="random" departSpeed="10" laneChangeMode="5242898" />
    <vehicle id="vehicle_16_gaussian" type="standard_car" route="S_to_N" depart="513" departLane="random" departSpeed="10" laneChangeMode="5242898" />
    <vehicle id="vehicle_560_rand" type="standard_car" route="W_to_N" depart="513" departLane="random" departSpeed="10" laneChangeMode="5242898" />
    <vehicle id="vehicle_152_gaussian" type="standard_car" route="S_to_N" depart="514" departLane="random" departSpeed="10" laneChangeMode="5242898" />
    <vehicle id="vehicle_524_rand" type="standard_car" route="S_to_N" depart="518" departLane="random" departSpeed="10" laneChangeMode="5242898" />
    <vehicle id="vehicle_64_gaussian" type="standard_car" route="S_to_N" depart="519" departLane="random" departSpeed="10" laneChangeMode="5242898" />
    <vehicle id="vehicle_17_gaussian" type="standard_car" route="S_to_N" depart="520" departLane="random" departSpeed="10" laneChangeMode="5242898" />
    <vehicle id="vehicle_399_gaussian" type="standard_car" route="S_to_N" depart="521" departLane="random" departSpeed="10" laneChangeMode="5242898" />
    <vehicle id="vehicle_369_gaussian" type="standard_car" route="S_to_N" depart="524" departLane="random" departSpeed="10" laneChangeMode="5242898" />
    <vehicle id="vehicle_163_gaussian" type="standard_car" route="S_to_N" depart="529" departLane="random" departSpeed="10" laneChangeMode="5242898" />
    <vehicle id="vehicle_254_gaussian" type="standard_car" route="S_to_N" depart="529" departLane="random" departSpeed="10" laneChangeMode="5242898" />
    <vehicle id="vehicle_86_gaussian" type="standard_car" route="S_to_E" depart="531" departLane="random" departSpeed="10" laneChangeMode="5242898" />
    <vehicle id="vehicle_213_gaussian" type="standard_car" route="S_to_N" depart="532" departLane="random" departSpeed="10" laneChangeMode="5242898" />
    <vehicle id="vehicle_366_rand" type="standard_car" route="S_to_N" depart="534" departLane="random" departSpeed="10" laneChangeMode="5242898" />
    <vehicle id="vehicle_230_rand" type="standard_car" route="S_to_N" depart="536" departLane="random" departSpeed="10" laneChangeMode="5242898" />
    <vehicle id="vehicle_182_gaussian" type="standard_car" route="S_to_N" depart="537" departLane="random" departSpeed="10" laneChangeMode="5242898" />
    <vehicle id="vehicle_338_gaussian" type="standard_car" route="S_to_N" depart="537" departLane="random" departSpeed="10" laneChangeMode="5242898" />
    <vehicle id="vehicle_238_gaussian" type="standard_car" route="S_to_N" depart="538" departLane="random" departSpeed="10" laneChangeMode="5242898" />
    <vehicle id="vehicle_46_gaussian" type="standard_car" route="S_to_N" depart="538" departLane="random" departSpeed="10" laneChangeMode="5242898" />
    <vehicle id="vehicle_217_gaussian" type="standard_car" route="S_to_N" depart="541" departLane="random" departSpeed="10" laneChangeMode="5242898" />
    <vehicle id="vehicle_488_rand" type="standard_car" route="S_to_N" depart="543" departLane="random" departSpeed="10" laneChangeMode="5242898" />
    <vehicle id="vehicle_61_gaussian" type="standard_car" route="S_to_N" depart="543" departLane="random" departSpeed="10" laneChangeMode="5242898" />
    <vehicle id="vehicle_316_gaussian" type="standard_car" route="S_to_N" depart="544" departLane="random" departSpeed="10" laneChangeMode="5242898" />
    <vehicle id="vehicle_68_gaussian" type="standard_car" route="S_to_N" depart="544" departLane="random" departSpeed="10" laneChangeMode="5242898" />
    <vehicle id="vehicle_196_gaussian" type="standard_car" route="S_to_N" depart="547" departLane="random" departSpeed="10" laneChangeMode="5242898" />
    <vehicle id="vehicle_168_gaussian" type="standard_car" route="S_to_W" depart="550" departLane="random" departSpeed="10" laneChangeMode="5242898" />
    <vehicle id="vehicle_200_gaussian" type="standard_car" route="S_to_N" depart="551" departLane="random" departSpeed="10" laneChangeMode="5242898" />
    <vehicle id="vehicle_74_gaussian" type="standard_car" route="N_to_S" depart="553" departLane="random" departSpeed="10" laneChangeMode="5242898" />
    <vehicle id="vehicle_104_rand" type="standard_car" route="S_to_W" depart="554" departLane="random" departSpeed="10" laneChangeMode="5242898" />
    <vehicle id="vehicle_315_rand" type="standard_car" route="W_to_N" depart="555" departLane="random" departSpeed="10" laneChangeMode="5242898" />
    <vehicle id="vehicle_148_gaussian" type="standard_car" route="S_to_N" depart="556" departLane="random" departSpeed="10" laneChangeMode="5242898" />
    <vehicle id="vehicle_7_gaussian" type="standard_car" route="S_to_N" depart="556" departLane="random" departSpeed="10" laneChangeMode="5242898" />
    <vehicle id="vehicle_140_gaussian" type="standard_car" route="N_to_E" depart="559" departLane="random" departSpeed="10" laneChangeMode="5242898" />
    <vehicle id="vehicle_390_gaussian" type="standard_car" route="S_to_W" depart="560" departLane="random" departSpeed="10" laneChangeMode="5242898" />
    <vehicle id="vehicle_199_rand" type="standard_car" route="W_to_N" depart="561" departLane="random" departSpeed="10" laneChangeMode="5242898" />
    <vehicle id="vehicle_222_rand" type="standard_car" route="W_to_E" depart="561" departLane="random" departSpeed="10" laneChangeMode="5242898" />
    <vehicle id="vehicle_36_rand" type="standard_car" route="E_to_W" depart="562" departLane="random" departSpeed="10" laneChangeMode="5242898" />
    <vehicle id="vehicle_31_gaussian" type="standard_car" route="S_to_N" depart="563" departLane="random" departSpeed="10" laneChangeMode="5242898" />
    <vehicle id="vehicle_276_rand" type="standard_car" route="E_to_W" depart="569" departLane="random" departSpeed="10" laneChangeMode="5242898" />
    <vehicle id="vehicle_325_gaussian" type="standard_car" route="S_to_N" depart="570" departLane="random" departSpeed="10" laneChangeMode="5242898" />
    <vehicle id="vehicle_205_gaussian" type="standard_car" route="S_to_N" depart="571" departLane="random" departSpeed="10" laneChangeMode="5242898" />
    <vehicle id="vehicle_275_rand" type="standard_car" route="W_to_S" depart="574" departLane="random" departSpeed="10" laneChangeMode="5242898" />
    <vehicle id="vehicle_187_gaussian" type="standard_car" route="S_to_N" depart="575" departLane="random" departSpeed="10" laneChangeMode="5242898" />
    <vehicle id="vehicle_379_gaussian" type="standard_car" route="S_to_E" depart="578" departLane="random" departSpeed="10" laneChangeMode="5242898" />
    <vehicle id="vehicle_470_rand" type="standard_car" route="E_to_N" depart="579" departLane="random" departSpeed="10" laneChangeMode="5242898" />
    <vehicle id="vehicle_234_gaussian" type="standard_car" route="S_to_N" depart="587" departLane="random" departSpeed="10" laneChangeMode="5242898" />
    <vehicle id="vehicle_104_gaussian" type="standard_car" route="S_to_N" depart="591" departLane="random" departSpeed="10" laneChangeMode="5242898" />
    <vehicle id="vehicle_186_gaussian" type="standard_car" route="S_to_N" depart="592" departLane="random" departSpeed="10" laneChangeMode="5242898" />
    <vehicle id="vehicle_134_gaussian" type="standard_car" route="N_to_W" depart="593" departLane="random" departSpeed="10" laneChangeMode="5242898" />
    <vehicle id="vehicle_170_gaussian" type="standard_car" route="N_to_S" depart="593" departLane="random" departSpeed="10" laneChangeMode="5242898" />