                
<routes>
            <vType accel="1.0" decel="4.5" id="standard_car" length="5.0" minGap="2.5" maxSpeed="25" sigma="0.5" laneChangeMode="5242898"/>
            
            <!-- route definition (the car route) -->

            <route id="W_to_N" edges="W_in N_out"/>
            <route id="W_to_E" edges="W_in E_out"/>
            <route id="W_to_S" edges="W_in S_out"/>
            <route id="N_to_W" edges="N_in W_out"/>
            <route id="N_to_E" edges="N_in E_out"/>
            <route id="N_to_S" edges="N_in S_out"/>
            <route id="E_to_W" edges="E_in W_out"/>
            <route id="E_to_N" edges="E_in N_out"/>
            <route id="E_to_S" edges="E_in S_out"/>
            <route id="S_to_W" edges="S_in W_out"/>
            <route id="S_to_N" edges="S_in N_out"/>
            <route id="S_to_E" edges="S_in E_out"/>
    <vehicle id="vehicle_639" type="standard_car" route="N_to_S" depart="4.0" departLane="random" departSpeed="10" laneChangeMode="5242898" />
    <vehicle id="vehicle_306" type="standard_car" route="W_to_E" depart="9.0" departLane="random" departSpeed="10" laneChangeMode="5242898" />
    <vehicle id="vehicle_275" type="standard_car" route="S_to_N" depart="11.0" departLane="random" departSpeed="10" laneChangeMode="5242898" />
    <vehicle id="vehicle_567" type="standard_car" route="S_to_N" depart="20.0" departLane="random" departSpeed="10" laneChangeMode="5242898" />
    <vehicle id="vehicle_80" type="standard_car" route="N_to_S" depart="27.0" departLane="random" departSpeed="10" laneChangeMode="5242898" />
    <vehicle id="vehicle_110" type="standard_car" route="S_to_N" depart="34.0" departLane="random" departSpeed="10" laneChangeMode="5242898" />
    <vehicle id="vehicle_217" type="standard_car" route="W_to_E" depart="37.0" departLane="random" departSpeed="10" laneChangeMode="5242898" />
    <vehicle id="vehicle_34" type="standard_car" route="N_to_S" depart="40.0" departLane="random" departSpeed="10" laneChangeMode="5242898" />
    <vehicle id="vehicle_422" type="standard_car" route="N_to_S" depart="41.0" departLane="random" departSpeed="10" laneChangeMode="5242898" />
    <vehicle id="vehicle_602" type="standard_car" route="W_to_E" depart="46.0" departLane="random" departSpeed="10" laneChangeMode="5242898" />
    <vehicle id="vehicle_769" type="standard_car" route="S_to_N" depart="46.0" departLane="random" departSpeed="10" laneChangeMode="5242898" />
    <vehicle id="vehicle_323" type="standard_car" route="W_to_E" depart="47.0" departLane="random" departSpeed="10" laneChangeMode="5242898" />
    <vehicle id="vehicle_967" type="standard_car" route="S_to_W" depart="51.0" departLane="random" departSpeed="10" laneChangeMode="5242898" />
    <vehicle id="vehicle_409" type="standard_car" route="S_to_W" depart="52.0" departLane="random" departSpeed="10" laneChangeMode="5242898" />
    <vehicle id="vehicle_774" type="standard_car" route="N_to_E" depart="55.0" departLane="random" departSpeed="10" laneChangeMode="5242898" />
    <vehicle id="vehicle_65" type="standard_car" route="S_to_W" depart="63.0" departLane="random" departSpeed="10" laneChangeMode="5242898" />
    <vehicle id="vehicle_19" type="standard_car" route="S_to_N" depart="66.0" departLane="random" departSpeed="10" laneChangeMode="5242898" />
    <vehicle id="vehicle_47" type="standard_car" route="N_to_S" depart="68.0" departLane="random" departSpeed="10" laneChangeMode="5242898" />
    <vehicle id="vehicle_951" type="standard_car" route="W_to_N" depart="72.0" departLane="random" departSpeed="10" laneChangeMode="5242898" />
    <vehicle id="vehicle_133" type="standard_car" route="S_to_W" depart="76.0" departLane="random" departSpeed="10" laneChangeMode="5242898" />
    <vehicle id="vehicle_223" type="standard_car" route="N_to_S" depart="78.0" departLane="random" departSpeed="10" laneChangeMode="5242898" />
    <vehicle id="vehicle_189" type="standard_car" route="N_to_S" depart="105.0" departLane="random" departSpeed="10" laneChangeMode="5242898" />
    <vehicle id="vehicle_316" type="standard_car" route="W_to_E" depart="106.0" departLane="random" departSpeed="10" laneChangeMode="5242898" />
    <vehicle id="vehicle_209" type="standard_car" route="S_to_W" depart="110.0" departLane="random" departSpeed="10" laneChangeMode="5242898" />
    <vehicle id="vehicle_272" type="standard_car" route="W_to_E" depart="111.0" departLane="random" departSpeed="10" laneChangeMode="5242898" />
    <vehicle id="vehicle_947" type="standard_car" route="N_to_S" depart="112.0" departLane="random" departSpeed="10" laneChangeMode="5242898" />
    <vehicle id="vehicle_234" type="standard_car" route="S_to_W" depart="123.0" departLane="random" departSpeed="10" laneChangeMode="5242898" />
    <vehicle id="vehicle_645" type="standard_car" route="N_to_S" depart="126.0" departLane="random" departSpeed="10" laneChangeMode="5242898" />
    <vehicle id="vehicle_539" type="standard_car" route="W_to_E" depart="128.0" departLane="random" departSpeed="10" laneChangeMode="5242898" />
    <vehicle id="vehicle_832" type="standard_car" route="W_to_E" depart="128.0" departLane="random" departSpeed="10" laneChangeMode="5242898" />
    <vehicle id="vehicle_823" type="standard_car" route="S_to_N" depart="135.0" departLane="random" departSpeed="10" laneChangeMode="5242898" />
    <vehicle id="vehicle_991" type="standard_car" route="S_to_N" depart="142.0" departLane="random" departSpeed="10" laneChangeMode="5242898" />
    <vehicle id="vehicle_975" type="standard_car" route="S_to_E" depart="145.0" departLane="random" departSpeed="10" laneChangeMode="5242898" />
    <vehicle id="vehicle_415" type="standard_car" route="S_to_N" depart="147.0" departLane="random" departSpeed="10" laneChangeMode="5242898" />
    <vehicle id="vehicle_678" type="standard_car" route="S_to_W" depart="153.0" departLane="random" departSpeed="10" laneChangeMode="5242898" />
    <vehicle id="vehicle_978" type="standard_car" route="N_to_S" depart="154.0" departLane="random" departSpeed="10" laneChangeMode="5242898" />
    <vehicle id="vehicle_494" type="standard_car" route="W_to_S" depart="162.0" departLane="random" departSpeed="10" laneChangeMode="5242898" />
    <vehicle id="vehicle_349" type="standard_car" route="W_to_E" depart="163.0" departLane="random" departSpeed="10" laneChangeMode="5242898" />
    <vehicle id="vehicle_132" type="standard_car" route="W_to_N" depart="164.0" departLane="random" departSpeed="10" laneChangeMode="5242898" />
    <vehicle id="vehicle_46" type="standard_car" route="W_to_N" depart="168.0" departLane="random" departSpeed="10" laneChangeMode="5242898" />
    <vehicle id="vehicle_98" type="standard_car" route="W_to_E" depart="169.0" departLane="random" departSpeed="10" laneChangeMode="5242898" />
    <vehicle id="vehicle_411" type="standard_car" route="N_to_S" depart="173.0" departLane="random" departSpeed="10" laneChangeMode="5242898" />
    <vehicle id="vehicle_697" type="standard_car" route="N_to_S" depart="174.0" departLane="random" departSpeed="10" laneChangeMode="5242898" />
    <vehicle id="vehicle_442" type="standard_car" route="W_to_N" depart="175.0" departLane="random" departSpeed="10" laneChangeMode="5242898" />
    <vehicle id="vehicle_787" type="standard_car" route="S_to_E" depart="177.0" departLane="random" departSpeed="10" laneChangeMode="5242898" />
    <vehicle id="vehicle_347" type="standard_car" route="S_to_N" depart="180.0" departLane="random" departSpeed="10" laneChangeMode="5242898" />
    <vehicle id="vehicle_21" type="standard_car" route="S_to_N" depart="181.0" departLane="random" departSpeed="10" laneChangeMode="5242898" />
    <vehicle id="vehicle_900" type="standard_car" route="N_to_S" depart="181.0" departLane="random" departSpeed="10" laneChangeMode="5242898" />
    <vehicle id="vehicle_918" type="standard_car" route="S_to_N" depart="182.0" departLane="random" departSpeed="10" laneChangeMode="5242898" />
    <vehicle id="vehicle_886" type="standard_car" route="S_to_N" depart="183.0" departLane="random" departSpeed="10" laneChangeMode="5242898" />
    <vehicle id="vehicle_430" type="standard_car" route="S_to_N" depart="197.0" departLane="random" departSpeed="10" laneChangeMode="5242898" />
    <vehicle id="vehicle_412" type="standard_car" route="S_to_N" depart="219.0" departLane="random" departSpeed="10" laneChangeMode="5242898" />
    <vehicle id="vehicle_427" type="standard_car" route="W_to_E" depart="219.0" departLane="random" departSpeed="10" laneChangeMode="5242898" />
    <vehicle id="vehicle_661" type="standard_car" route="S_to_W" depart="226.0" departLane="random" departSpeed="10" laneChangeMode="5242898" />
    <vehicle id="vehicle_552" type="standard_car" route="S_to_N" depart="227.0" departLane="random" departSpeed="10" laneChangeMode="5242898" />
    <vehicle id="vehicle_116" type="standard_car" route="N_to_E" depart="228.0" departLane="random" departSpeed="10" laneChangeMode="5242898" />
    <vehicle id="vehicle_117" type="standard_car" route="W_to_N" depart="232.0" departLane="random" departSpeed="10" laneChangeMode="5242898" />
    <vehicle id="vehicle_210" type="standard_car" route="S_to_N" depart="233.0" departLane="random" departSpeed="10" laneChangeMode="5242898" />
    <vehicle id="vehicle_916" type="standard_car" route="S_to_N" depart="239.0" departLane="random" departSpeed="10" laneChangeMode="5242898" />
    <vehicle id="vehicle_529" type="standard_car" route="W_to_E" depart="243.0" departLane="random" departSpeed="10" laneChangeMode="5242898" />
    <vehicle id="vehicle_453" type="standard_car" route="W_to_N" depart="245.0" departLane="random" departSpeed="10" laneChangeMode="5242898" />
    <vehicle id="vehicle_59" type="standard_car" route="S_to_N" depart="245.0" departLane="random" departSpeed="10" laneChangeMode="5242898" />
    <vehicle id="vehicle_765" type="standard_car" route="W_to_E" depart="256.0" departLane="random" departSpeed="10" laneChangeMode="5242898" />
    <vehicle id="vehicle_252" type="standard_car" route="N_to_S" depart="258.0" departLane="random" departSpeed="10" laneChangeMode="5242898" />
    <vehicle id="vehicle_718" type="standard_car" route="W_to_E" depart="261.0" departLane="random" departSpeed="10" laneChangeMode="5242898" />
    <vehicle id="vehicle_756" type="standard_car" route="W_to_N" depart="262.0" departLane="random" departSpeed="10" laneChangeMode="5242898" />
    <vehicle id="vehicle_846" type="standard_car" route="W_to_E" depart="265.0" departLane="random" departSpeed="10" laneChangeMode="5242898" />
    <vehicle id="vehicle_255" type="standard_car" route="N_to_S" depart="272.0" departLane="random" departSpeed="10" laneChangeMode="5242898" />
    <vehicle id="vehicle_455" type="standard_car" route="N_to_S" depart="272.0" departLane="random" departSpeed="10" laneChangeMode="5242898" />
    <vehicle id="vehicle_134" type="standard_car" route="S_to_N" depart="275.0" departLane="random" departSpeed="10" laneChangeMode="5242898" />
    <vehicle id="vehicle_354" type="standard_car" route="W_to_E" depart="298.0" departLane="random" departSpeed="10" laneChangeMode="5242898" />
    <vehicle id="vehicle_615" type="standard_car" route="N_to_S" depart="300.0" departLane="random" departSpeed="10" laneChangeMode="5242898" />
    <vehicle id="vehicle_452" type="standard_car" route="N_to_S" depart="305.0" departLane="random" departSpeed="10" laneChangeMode="5242898" />
    <vehicle id="vehicle_671" type="standard_car" route="S_to_N" depart="307.0" departLane="random" departSpeed="10" laneChangeMode="5242898" />
    <vehicle id="vehicle_860" type="standard_car" route="S_to_N" depart="310.0" departLane="random" departSpeed="10" laneChangeMode="5242898" />
    <vehicle id="vehicle_270" type="standard_car" route="N_to_S" depart="311.0" departLane="random" departSpeed="10" laneChangeMode="5242898" />
    <vehicle id="vehicle_604" type="standard_car" route="W_to_E" depart="312.0" departLane="random" departSpeed="10" laneChangeMode="5242898" />
    <vehicle id="vehicle_1" type="standard_car" route="W_to_N" depart="314.0" departLane="random" departSpeed="10" laneChangeMode="5242898" />
    <vehicle id="vehicle_8" type="standard_car" route="S_to_E" depart="316.0" departLane="random" departSpeed="10" laneChangeMode="5242898" />
    <vehicle id="vehicle_99" type="standard_car" route="E_to_W" depart="316.0" departLane="random" departSpeed="10" laneChangeMode="5242898" />
    <vehicle id="vehicle_733" type="standard_car" route="S_to_N" depart="323.0" departLane="random" departSpeed="10" laneChangeMode="5242898" />
    <vehicle id="vehicle_668" type="standard_car" route="S_to_E" depart="324.0" departLane="random" departSpeed="10" laneChangeMode="5242898" />
    <vehicle id="vehicle_998" type="standard_car" route="N_to_S" depart="324.0" departLane="random" departSpeed="10" laneChangeMode="5242898" />
    <vehicle id="vehicle_388" type="standard_car" route="N_to_W" depart="325.0" departLane="random" departSpeed="10" laneChangeMode="5242898" />
    <vehicle id="vehicle_342" type="standard_car" route="E_to_S" depart="328.0" departLane="random" departSpeed="10" laneChangeMode="5242898" />
    <vehicle id="vehicle_949" type="standard_car" route="S_to_N" depart="332.0" departLane="random" departSpeed="10" laneChangeMode="5242898" />
    <vehicle id="vehicle_11" type="standard_car" route="W_to_E" depart="334.0" departLane="random" departSpeed="10" laneChangeMode="5242898" />
    <vehicle id="vehicle_392" type="standard_car" route="W_to_E" depart="340.0" departLane="random" departSpeed="10" laneChangeMode="5242898" />
    <vehicle id="vehicle_910" type="standard_car" route="E_to_W" depart="340.0" departLane="random" departSpeed="10" laneChangeMode="5242898" />
    <vehicle id="vehicle_938" type="standard_car" route="N_to_W" depart="343.0" departLane="random" departSpeed="10" laneChangeMode="5242898" />
    <vehicle id="vehicle_746" type="standard_car" route="W_to_E" depart="344.0" departLane="random" departSpeed="10" laneChangeMode="5242898" />
    <vehicle id="vehicle_976" type="standard_car" route="E_to_W" depart="345.0" departLane="random" departSpeed="10" laneChangeMode="5242898" />
    <vehicle id="vehicle_23" type="standard_car" route="W_to_E" depart="348.0" departLane="random" departSpeed="10" laneChangeMode="5242898" />
    <vehicle id="vehicle_286" type="standard_car" route="N_to_W" depart="351.0" departLane="random" departSpeed="10" laneChangeMode="5242898" />
    <vehicle id="vehicle_176" type="standard_car" route="W_to_E" depart="361.0" departLane="random" departSpeed="10" laneChangeMode="5242898" />
    <vehicle id="vehicle_57" type="standard_car" route="S_to_W" depart="365.0" departLane="random" departSpeed="10" laneChangeMode="5242898" />
    <vehicle id="vehicle_729" type="standard_car" route="N_to_W" depart="371.0" departLane="random" departSpeed="10" laneChangeMode="5242898" />
    <vehicle id="vehicle_571" type="standard_car" route="S_to_N" depart="378.0" departLane="random" departSpeed="10" laneChangeMode="5242898" />
    <vehicle id="vehicle_169" type="standard_car" route="W_to_E" depart="385.0" departLane="random" departSpeed="10" laneChangeMode="5242898" />
    <vehicle id="vehicle_806" type="standard_car" route="W_to_E" depart="385.0" departLane="random" departSpeed="10" laneChangeMode="5242898" />
    <vehicle id="vehicle_381" type="standard_car" route="W_to_E" depart="387.0" departLane="random" departSpeed="10" laneChangeMode="5242898" />
    <vehicle id="vehicle_736" type="standard_car" route="W_to_E" depart="394.0" departLane="random" departSpeed="10" laneChangeMode="5242898" />
    <vehicle id="vehicle_305" type="standard_car" route="E_to_W" depart="395.0" departLane="random" departSpeed="10" laneChangeMode="5242898" />
    <vehicle id="vehicle_738" type="standard_car" route="W_to_E" depart="398.0" departLane="random" departSpeed="10" laneChangeMode="5242898" />
    <vehicle id="vehicle_183" type="standard_car" route="S_to_N" depart="406.0" departLane="random" departSpeed="10" laneChangeMode="5242898" />
    <vehicle id="vehicle_726" type="standard_car" route="N_to_S" depart="412.0" departLane="random" departSpeed="10" laneChangeMode="5242898" />
    <vehicle id="vehicle_856" type="standard_car" route="S_to_N" depart="422.0" departLane="random" departSpeed="10" laneChangeMode="5242898" />
    <vehicle id="vehicle_553" type="standard_car" route="E_to_W" depart="430.0" departLane="random" departSpeed="10" laneChangeMode="5242898" />
    <vehicle id="vehicle_244" type="standard_car" route="E_to_S" depart="435.0" departLane="random" departSpeed="10" laneChangeMode="5242898" />
    <vehicle id="vehicle_0" type="standard_car" route="S_to_N" depart="436.0" departLane="random" departSpeed="10" laneChangeMode="5242898" />
    <vehicle id="vehicle_418" type="standard_car" route="E_to_N" depart="436.0" departLane="random" departSpeed="10" laneChangeMode="5242898" />
    <vehicle id="vehicle_889" type="standard_car" route="E_to_S" depart="439.0" departLane="random" departSpeed="10" laneChangeMode="5242898" />
    <vehicle id="vehicle_717" type="standard_car" route="S_to_N" depart="444.0" departLane="random" departSpeed="10" laneChangeMode="5242898" />
    <vehicle id="vehicle_825" type="standard_car" route="E_to_W" depart="446.0" departLane="random" departSpeed="10" laneChangeMode="5242898" />
    <vehicle id="vehicle_257" type="standard_car" route="N_to_S" depart="449.0" departLane="random" departSpeed="10" laneChangeMode="5242898" />
    <vehicle id="vehicle_70" type="standard_car" route="S_to_N" depart="450.0" departLane="random" departSpeed="10" laneChangeMode="5242898" />
    <vehicle id="vehicle_779" type="standard_car" route="W_to_E" depart="450.0" departLane="random" departSpeed="10" laneChangeMode="5242898" />
    <vehicle id="vehicle_917" type="standard_car" route="E_to_W" depart="450.0" departLane="random" departSpeed="10" laneChangeMode="5242898" />
    <vehicle id="vehicle_58" type="standard_car" route="E_to_W" depart="453.0" departLane="random" departSpeed="10" laneChangeMode="5242898" />
    <vehicle id="vehicle_405" type="standard_car" route="N_to_S" depart="458.0" departLane="random" departSpeed="10" laneChangeMode="5242898" />
    <vehicle id="vehicle_188" type="standard_car" route="E_to_W" depart="471.0" departLane="random" departSpeed="10" laneChangeMode="5242898" />
    <vehicle id="vehicle_248" type="standard_car" route="E_to_W" depart="476.0" departLane="random" departSpeed="10" laneChangeMode="5242898" />
    <vehicle id="vehicle_536" type="standard_car" route="E_to_W" depart="477.0" departLane="random" departSpeed="10" laneChangeMode="5242898" />
    <vehicle id="vehicle_616" type="standard_car" route="S_to_N" depart="480.0" departLane="random" departSpeed="10" laneChangeMode="5242898" />
    <vehicle id="vehicle_391" type="standard_car" route="W_to_E" depart="485.0" departLane="random" departSpeed="10" laneChangeMode="5242898" />
    <vehicle id="vehicle_599" type="standard_car" route="W_to_E" depart="487.0" departLane="random" departSpeed="10" laneChangeMode="5242898" />
    <vehicle id="vehicle_444" type="standard_car" route="E_to_W" depart="491.0" departLane="random" departSpeed="10" laneChangeMode="5242898" />
    <vehicle id="vehicle_253" type="standard_car" route="E_to_S" depart="492.0" departLane="random" departSpeed="10" laneChangeMode="5242898" />
    <vehicle id="vehicle_68" type="standard_car" route="W_to_N" depart="497.0" departLane="random" departSpeed="10" laneChangeMode="5242898" />
    <vehicle id="vehicle_312" type="standard_car" route="S_to_E" depart="498.0" departLane="random" departSpeed="10" laneChangeMode="5242898" />
    <vehicle id="vehicle_939" type="standard_car" route="S_to_N" depart="498.0" departLane="random" departSpeed="10" laneChangeMode="5242898" />
    <vehicle id="vehicle_247" type="standard_car" route="N_to_S" depart="499.0" departLane="random" departSpeed="10" laneChangeMode="5242898" />
    <vehicle id="vehicle_374" type="standard_car" route="S_to_N" depart="502.0" departLane="random" departSpeed="10" laneChangeMode="5242898" />
    <vehicle id="vehicle_356" type="standard_car" route="W_to_E" depart="506.0" departLane="random" departSpeed="10" laneChangeMode="5242898" />
    <vehicle id="vehicle_302" type="standard_car" route="E_to_W" depart="512.0" departLane="random" departSpeed="10" laneChangeMode="5242898" />
    <vehicle id="vehicle_367" type="standard_car" route="W_to_E" depart="513.0" departLane="random" departSpeed="10" laneChangeMode="5242898" />
    <vehicle id="vehicle_200" type="standard_car" route="W_to_E" depart="514.0" departLane="random" departSpeed="10" laneChangeMode="5242898" />
    <vehicle id="vehicle_763" type="standard_car" route="N_to_S" depart="514.0" departLane="random" departSpeed="10" laneChangeMode="5242898" />
    <vehicle id="vehicle_242" type="standard_car" route="E_to_W" depart="515.0" departLane="random" departSpeed="10" laneChangeMode="5242898" />
    <vehicle id="vehicle_385" type="standard_car" route="E_to_W" depart="516.0" departLane="random" departSpeed="10" laneChangeMode="5242898" />
    <vehicle id="vehicle_514" type="standard_car" route="E_to_W" depart="517.0" departLane="random" departSpeed="10" laneChangeMode="5242898" />
    <vehicle id="vehicle_371" type="standard_car" route="E_to_W" depart="519.0" departLane="random" departSpeed="10" laneChangeMode="5242898" />
    <vehicle id="vehicle_56" type="standard_car" route="W_to_E" depart="521.0" departLane="random" departSpeed="10" laneChangeMode="5242898" />
    <vehicle id="vehicle_997" type="standard_car" route="W_to_N" depart="522.0" departLane="random" departSpeed="10" laneChangeMode="5242898" />
    <vehicle id="vehicle_880" type="standard_car" route="E_to_W" depart="523.0" departLane="random" departSpeed="10" laneChangeMode="5242898" />
    <vehicle id="vehicle_989" type="standard_car" route="S_to_N" depart="529.0" departLane="random" departSpeed="10" laneChangeMode="5242898" />
    <vehicle id="vehicle_478" type="standard_car" route="E_to_W" depart="530.0" departLane="random" departSpeed="10" laneChangeMode="5242898" />
    <vehicle id="vehicle_413" type="standard_car" route="E_to_W" depart="533.0" departLane="random" departSpeed="10" laneChangeMode="5242898" />
    <vehicle id="vehicle_199" type="standard_car" route="E_to_W" depart="542.0" departLane="random" departSpeed="10" laneChangeMode="5242898" />
    <vehicle id="vehicle_72" type="standard_car" route="N_to_S" depart="551.0" departLane="random" departSpeed="10" laneChangeMode="5242898" />
    <vehicle id="vehicle_236" type="standard_car" route="N_to_S" depart="555.0" departLane="random" departSpeed="10" laneChangeMode="5242898" />
    <vehicle id="vehicle_610" type="standard_car" route="E_to_W" depart="556.0" departLane="random" departSpeed="10" laneChangeMode="5242898" />
    <vehicle id="vehicle_404" type="standard_car" route="W_to_E" depart="560.0" departLane="random" departSpeed="10" laneChangeMode="5242898" />
    <vehicle id="vehicle_29" type="standard_car" route="S_to_N" depart="562.0" departLane="random" departSpeed="10" laneChangeMode="5242898" />
    <vehicle id="vehicle_640" type="standard_car" route="W_to_E" depart="565.0" departLane="random" departSpeed="10" laneChangeMode="5242898" />
    <vehicle id="vehicle_522" type="standard_car" route="E_to_N" depart="569.0" departLane="random" departSpeed="10" laneChangeMode="5242898" />
    <vehicle id="vehicle_240" type="standard_car" route="W_to_S" depart="571.0" departLane="random" departSpeed="10" laneChangeMode="5242898" />
    <vehicle id="vehicle_163" type="standard_car" route="E_to_W" depart="572.0" departLane="random" departSpeed="10" laneChangeMode="5242898" />
    <vehicle id="vehicle_35" type="standard_car" route="E_to_W" depart="579.0" departLane="random" departSpeed="10" laneChangeMode="5242898" />
    <vehicle id="vehicle_814" type="standard_car" route="N_to_S" depart="579.0" departLane="random" departSpeed="10" laneChangeMode="5242898" />
    <vehicle id="vehicle_503" type="standard_car" route="E_to_W" depart="584.0" departLane="random" departSpeed="10" laneChangeMode="5242898" />
    <vehicle id="vehicle_869" type="standard_car" route="W_to_E" depart="585.0" departLane="random" departSpeed="10" laneChangeMode="5242898" />
    <vehicle id="vehicle_43" type="standard_car" route="W_to_E" depart="586.0" departLane="random" departSpeed="10" laneChangeMode="5242898" />
    <vehicle id="vehicle_672" type="standard_car" route="N_to_S" depart="586.0" departLane="random" departSpeed="10" laneChangeMode="5242898" />
    <vehicle id="vehicle_768" type="standard_car" route="S_to_E" depart="586.0" departLane="random" departSpeed="10" laneChangeMode="5242898" />
    <vehicle id="vehicle_858" type="standard_car" route="E_to_W" depart="595.0" departLane="random" departSpeed="10" laneChangeMode="5242898" />
    <vehicle id="vehicle_540" type="standard_car" route="W_to_S" depart="597.0" departLane="random" departSpeed="10" laneChangeMode="5242898" />
    <vehicle id="vehicle_261" type="standard_car" route="W_to_S" depart="602.0" departLane="random" departSpeed="10" laneChangeMode="5242898" />
    <vehicle id="vehicle_226" type="standard_car" route="E_to_W" depart="604.0" departLane="random" departSpeed="10" laneChangeMode="5242898" />
    <vehicle id="vehicle_278" type="standard_car" route="N_to_S" depart="607.0" departLane="random" departSpeed="10" laneChangeMode="5242898" />
    <vehicle id="vehicle_279" type="standard_car" route="E_to_W" depart="609.0" departLane="random" departSpeed="10" laneChangeMode="5242898" />
    <vehicle id="vehicle_309" type="standard_car" route="N_to_S" depart="611.0" departLane="random" departSpeed="10" laneChangeMode="5242898" />
    <vehicle id="vehicle_167" type="standard_car" route="E_to_W" depart="615.0" departLane="random" departSpeed="10" laneChangeMode="5242898" />
    <vehicle id="vehicle_375" type="standard_car" route="E_to_W" depart="615.0" departLane="random" departSpeed="10" laneChangeMode="5242898" />
    <vehicle id="vehicle_131" type="standard_car" route="E_to_W" depart="616.0" departLane="random" departSpeed="10" laneChangeMode="5242898" />
    <vehicle id="vehicle_470" type="standard_car" route="S_to_N" depart="617.0" departLane="random" departSpeed="10" laneChangeMode="5242898" />
    <vehicle id="vehicle_742" type="standard_car" route="E_to_W" depart="621.0" departLane="random" departSpeed="10" laneChangeMode="5242898" />
    <vehicle id="vehicle_791" type="standard_car" route="E_to_W" depart="624.0" departLane="random" departSpeed="10" laneChangeMode="5242898" />
    <vehicle id="vehicle_863" type="standard_car" route="W_to_E" depart="629.0" departLane="random" departSpeed="10" laneChangeMode="5242898" />
    <vehicle id="vehicle_376" type="standard_car" route="S_to_N" depart="631.0" departLane="random" departSpeed="10" laneChangeMode="5242898" />
    <vehicle id="vehicle_934" type="standard_car" route="W_to_E" depart="631.0" departLane="random" departSpeed="10" laneChangeMode="5242898" />
    <vehicle id="vehicle_196" type="standard_car" route="E_to_S" depart="636.0" departLane="random" departSpeed="10" laneChangeMode="5242898" />
    <vehicle id="vehicle_335" type="standard_car" route="E_to_W" depart="636.0" departLane="random" departSpeed="10" laneChangeMode="5242898" />
    <vehicle id="vehicle_179" type="standard_car" route="N_to_S" depart="638.0" departLane="random" departSpeed="10" laneChangeMode="5242898" />
    <vehicle id="vehicle_493" type="standard_car" route="W_to_E" depart="638.0" departLane="random" departSpeed="10" laneChangeMode="5242898" />
    <vehicle id="vehicle_624" type="standard_car" route="E_to_S" depart="639.0" departLane="random" departSpeed="10" laneChangeMode="5242898" />
    <vehicle id="vehicle_491" type="standard_car" route="S_to_N" depart="641.0" departLane="random" departSpeed="10" laneChangeMode="5242898" />
    <vehicle id="vehicle_704" type="standard_car" route="N_to_W" depart="642.0" departLane="random" departSpeed="10" laneChangeMode="5242898" />
    <vehicle id="vehicle_875" type="standard_car" route="N_to_S" depart="643.0" departLane="random" departSpeed="10" laneChangeMode="5242898" />
    <vehicle id="vehicle_303" type="standard_car" route="S_to_N" depart="644.0" departLane="random" departSpeed="10" laneChangeMode="5242898" />
    <vehicle id="vehicle_633" type="standard_car" route="N_to_S" depart="645.0" departLane="random" departSpeed="10" laneChangeMode="5242898" />
    <vehicle id="vehicle_817" type="standard_car" route="E_to_W" depart="648.0" departLane="random" departSpeed="10" laneChangeMode="5242898" />
    <vehicle id="vehicle_325" type="standard_car" route="E_to_W" depart="651.0" departLane="random" departSpeed="10" laneChangeMode="5242898" />
    <vehicle id="vehicle_87" type="standard_car" route="E_to_W" depart="652.0" departLane="random" departSpeed="10" laneChangeMode="5242898" />
    <vehicle id="vehicle_928" type="standard_car" route="E_to_W" depart="652.0" departLane="random" departSpeed="10" laneChangeMode="5242898" />
    <vehicle id="vehicle_439" type="standard_car" route="W_to_E" depart="655.0" departLane="random" departSpeed="10" laneChangeMode="5242898" />
    <vehicle id="vehicle_625" type="standard_car" route="E_to_W" depart="655.0" departLane="random" departSpeed="10" laneChangeMode="5242898" />
    <vehicle id="vehicle_622" type="standard_car" route="E_to_W" depart="658.0" departLane="random" departSpeed="10" laneChangeMode="5242898" />
    <vehicle id="vehicle_920" type="standard_car" route="W_to_E" depart="659.0" departLane="random" departSpeed="10" laneChangeMode="5242898" />
    <vehicle id="vehicle_114" type="standard_car" route="E_to_W" depart="662.0" departLane="random" departSpeed="10" laneChangeMode="5242898" />
    <vehicle id="vehicle_593" type="standard_car" route="E_to_W" depart="662.0" departLane="random" departSpeed="10" laneChangeMode="5242898" />