                
<routes>
            <vType accel="1.0" decel="4.5" id="standard_car" length="5.0" minGap="2.5" maxSpeed="25" sigma="0.5" laneChangeMode="5242898"/>
            
            <!-- route definition (the car route) -->

            <route id="W_to_N" edges="W_in N_out"/>
            <route id="W_to_E" edges="W_in E_out"/>
            <route id="W_to_S" edges="W_in S_out"/>
            <route id="N_to_W" edges="N_in W_out"/>
            <route id="N_to_E" edges="N_in E_out"/>
            <route id="N_to_S" edges="N_in S_out"/>
            <route id="E_to_W" edges="E_in W_out"/>
            <route id="E_to_N" edges="E_in N_out"/>
            <route id="E_to_S" edges="E_in S_out"/>
            <route id="S_to_W" edges="S_in W_out"/>
            <route id="S_to_N" edges="S_in N_out"/>
            <route id="S_to_E" edges="S_in E_out"/>
    <vehicle id="vehicle_535_rand" type="standard_car" route="N_to_S" depart="4" departLane="random" departSpeed="10" laneChangeMode="5242898" />
    <vehicle id="vehicle_490_rand" type="standard_car" route="N_to_S" depart="5" departLane="random" departSpeed="10" laneChangeMode="5242898" />
    <vehicle id="vehicle_143_rand" type="standard_car" route="E_to_W" depart="6" departLane="random" departSpeed="10" laneChangeMode="5242898" />
    <vehicle id="vehicle_259_rand" type="standard_car" route="S_to_N" depart="16" departLane="random" departSpeed="10" laneChangeMode="5242898" />
    <vehicle id="vehicle_199_rand" type="standard_car" route="S_to_N" depart="28" departLane="random" departSpeed="10" laneChangeMode="5242898" />
    <vehicle id="vehicle_429_rand" type="standard_car" route="S_to_N" depart="33" departLane="random" departSpeed="10" laneChangeMode="5242898" />
    <vehicle id="vehicle_75_rand" type="standard_car" route="N_to_S" depart="33" departLane="random" departSpeed="10" laneChangeMode="5242898" />
    <vehicle id="vehicle_440_rand" type="standard_car" route="S_to_N" depart="45" departLane="random" departSpeed="10" laneChangeMode="5242898" />
    <vehicle id="vehicle_47_rand" type="standard_car" route="S_to_N" depart="51" departLane="random" departSpeed="10" laneChangeMode="5242898" />
    <vehicle id="vehicle_264_rand" type="standard_car" route="W_to_E" depart="53" departLane="random" departSpeed="10" laneChangeMode="5242898" />
    <vehicle id="vehicle_299_rand" type="standard_car" route="S_to_N" depart="56" departLane="random" departSpeed="10" laneChangeMode="5242898" />
    <vehicle id="vehicle_113_rand" type="standard_car" route="S_to_N" depart="58" departLane="random" departSpeed="10" laneChangeMode="5242898" />
    <vehicle id="vehicle_110_rand" type="standard_car" route="S_to_N" depart="61" departLane="random" departSpeed="10" laneChangeMode="5242898" />
    <vehicle id="vehicle_233_rand" type="standard_car" route="E_to_N" depart="64" departLane="random" departSpeed="10" laneChangeMode="5242898" />
    <vehicle id="vehicle_65_rand" type="standard_car" route="N_to_S" depart="78" departLane="random" departSpeed="10" laneChangeMode="5242898" />
    <vehicle id="vehicle_549_rand" type="standard_car" route="N_to_S" depart="85" departLane="random" departSpeed="10" laneChangeMode="5242898" />
    <vehicle id="vehicle_567_rand" type="standard_car" route="E_to_N" depart="94" departLane="random" departSpeed="10" laneChangeMode="5242898" />
    <vehicle id="vehicle_319_rand" type="standard_car" route="N_to_S" depart="97" departLane="random" departSpeed="10" laneChangeMode="5242898" />
    <vehicle id="vehicle_550_rand" type="standard_car" route="E_to_S" depart="127" departLane="random" departSpeed="10" laneChangeMode="5242898" />
    <vehicle id="vehicle_408_rand" type="standard_car" route="E_to_W" depart="129" departLane="random" departSpeed="10" laneChangeMode="5242898" />
    <vehicle id="vehicle_133_rand" type="standard_car" route="W_to_E" depart="130" departLane="random" departSpeed="10" laneChangeMode="5242898" />
    <vehicle id="vehicle_509_rand" type="standard_car" route="E_to_W" depart="132" departLane="random" departSpeed="10" laneChangeMode="5242898" />
    <vehicle id="vehicle_536_rand" type="standard_car" route="N_to_S" depart="133" departLane="random" departSpeed="10" laneChangeMode="5242898" />
    <vehicle id="vehicle_458_rand" type="standard_car" route="S_to_N" depart="138" departLane="random" departSpeed="10" laneChangeMode="5242898" />
    <vehicle id="vehicle_116_rand" type="standard_car" route="E_to_W" depart="140" departLane="random" departSpeed="10" laneChangeMode="5242898" />
    <vehicle id="vehicle_378_rand" type="standard_car" route="S_to_N" depart="144" departLane="random" departSpeed="10" laneChangeMode="5242898" />
    <vehicle id="vehicle_498_rand" type="standard_car" route="W_to_E" depart="157" departLane="random" departSpeed="10" laneChangeMode="5242898" />
    <vehicle id="vehicle_541_rand" type="standard_car" route="E_to_W" depart="164" departLane="random" departSpeed="10" laneChangeMode="5242898" />
    <vehicle id="vehicle_124_rand" type="standard_car" route="W_to_E" depart="179" departLane="random" departSpeed="10" laneChangeMode="5242898" />
    <vehicle id="vehicle_530_rand" type="standard_car" route="E_to_W" depart="180" departLane="random" departSpeed="10" laneChangeMode="5242898" />
    <vehicle id="vehicle_593_rand" type="standard_car" route="N_to_E" depart="181" departLane="random" departSpeed="10" laneChangeMode="5242898" />
    <vehicle id="vehicle_562_rand" type="standard_car" route="S_to_W" depart="198" departLane="random" departSpeed="10" laneChangeMode="5242898" />
    <vehicle id="vehicle_380_rand" type="standard_car" route="E_to_N" depart="208" departLane="random" departSpeed="10" laneChangeMode="5242898" />
    <vehicle id="vehicle_409_rand" type="standard_car" route="S_to_W" depart="209" departLane="random" departSpeed="10" laneChangeMode="5242898" />
    <vehicle id="vehicle_417_rand" type="standard_car" route="W_to_E" depart="209" departLane="random" departSpeed="10" laneChangeMode="5242898" />
    <vehicle id="vehicle_126_rand" type="standard_car" route="W_to_E" depart="217" departLane="random" departSpeed="10" laneChangeMode="5242898" />
    <vehicle id="vehicle_374_rand" type="standard_car" route="S_to_E" depart="229" departLane="random" departSpeed="10" laneChangeMode="5242898" />
    <vehicle id="vehicle_165_rand" type="standard_car" route="S_to_N" depart="234" departLane="random" departSpeed="10" laneChangeMode="5242898" />
    <vehicle id="vehicle_50_rand" type="standard_car" route="N_to_S" depart="236" departLane="random" departSpeed="10" laneChangeMode="5242898" />
    <vehicle id="vehicle_573_rand" type="standard_car" route="W_to_E" depart="248" departLane="random" departSpeed="10" laneChangeMode="5242898" />
    <vehicle id="vehicle_130_rand" type="standard_car" route="S_to_N" depart="252" departLane="random" departSpeed="10" laneChangeMode="5242898" />
    <vehicle id="vehicle_284_rand" type="standard_car" route="W_to_E" depart="269" departLane="random" departSpeed="10" laneChangeMode="5242898" />
    <vehicle id="vehicle_339_rand" type="standard_car" route="E_to_S" depart="273" departLane="random" departSpeed="10" laneChangeMode="5242898" />
    <vehicle id="vehicle_29_rand" type="standard_car" route="N_to_S" depart="280" departLane="random" departSpeed="10" laneChangeMode="5242898" />
    <vehicle id="vehicle_129_rand" type="standard_car" route="W_to_E" depart="287" departLane="random" departSpeed="10" laneChangeMode="5242898" />
    <vehicle id="vehicle_539_rand" type="standard_car" route="N_to_E" depart="293" departLane="random" departSpeed="10" laneChangeMode="5242898" />
    <vehicle id="vehicle_329_rand" type="standard_car" route="S_to_N" depart="299" departLane="random" departSpeed="10" laneChangeMode="5242898" />
    <vehicle id="vehicle_175_rand" type="standard_car" route="E_to_W" depart="304" departLane="random" departSpeed="10" laneChangeMode="5242898" />
    <vehicle id="vehicle_275_rand" type="standard_car" route="W_to_E" depart="339" departLane="random" departSpeed="10" laneChangeMode="5242898" />
    <vehicle id="vehicle_391_rand" type="standard_car" route="S_to_N" depart="344" departLane="random" departSpeed="10" laneChangeMode="5242898" />
    <vehicle id="vehicle_239_rand" type="standard_car" route="S_to_N" depart="350" departLane="random" departSpeed="10" laneChangeMode="5242898" />
    <vehicle id="vehicle_433_rand" type="standard_car" route="S_to_N" depart="351" departLane="random" departSpeed="10" laneChangeMode="5242898" />
    <vehicle id="vehicle_198_rand" type="standard_car" route="S_to_N" depart="352" departLane="random" departSpeed="10" laneChangeMode="5242898" />
    <vehicle id="vehicle_7_rand" type="standard_car" route="W_to_E" depart="355" departLane="random" departSpeed="10" laneChangeMode="5242898" />
    <vehicle id="vehicle_471_rand" type="standard_car" route="E_to_W" depart="361" departLane="random" departSpeed="10" laneChangeMode="5242898" />
    <vehicle id="vehicle_232_rand" type="standard_car" route="W_to_E" depart="372" departLane="random" departSpeed="10" laneChangeMode="5242898" />
    <vehicle id="vehicle_37_rand" type="standard_car" route="S_to_N" depart="372" departLane="random" departSpeed="10" laneChangeMode="5242898" />
    <vehicle id="vehicle_85_rand" type="standard_car" route="W_to_E" depart="376" departLane="random" departSpeed="10" laneChangeMode="5242898" />
    <vehicle id="vehicle_426_rand" type="standard_car" route="S_to_N" depart="383" departLane="random" departSpeed="10" laneChangeMode="5242898" />
    <vehicle id="vehicle_555_rand" type="standard_car" route="N_to_S" depart="385" departLane="random" departSpeed="10" laneChangeMode="5242898" />
    <vehicle id="vehicle_271_rand" type="standard_car" route="W_to_S" depart="389" departLane="random" departSpeed="10" laneChangeMode="5242898" />
    <vehicle id="vehicle_255_rand" type="standard_car" route="E_to_W" depart="391" departLane="random" departSpeed="10" laneChangeMode="5242898" />
    <vehicle id="vehicle_200_rand" type="standard_car" route="N_to_S" depart="396" departLane="random" departSpeed="10" laneChangeMode="5242898" />
    <vehicle id="vehicle_464_rand" type="standard_car" route="E_to_W" depart="403" departLane="random" departSpeed="10" laneChangeMode="5242898" />
    <vehicle id="vehicle_236_rand" type="standard_car" route="W_to_E" depart="407" departLane="random" departSpeed="10" laneChangeMode="5242898" />
    <vehicle id="vehicle_375_rand" type="standard_car" route="N_to_S" depart="411" departLane="random" departSpeed="10" laneChangeMode="5242898" />
    <vehicle id="vehicle_265_gaussian" type="standard_car" route="W_to_E" depart="429" departLane="random" departSpeed="10" laneChangeMode="5242898" />
    <vehicle id="vehicle_385_rand" type="standard_car" route="E_to_N" depart="443" departLane="random" departSpeed="10" laneChangeMode="5242898" />
    <vehicle id="vehicle_507_rand" type="standard_car" route="S_to_W" depart="451" departLane="random" departSpeed="10" laneChangeMode="5242898" />
    <vehicle id="vehicle_156_rand" type="standard_car" route="N_to_S" depart="453" departLane="random" departSpeed="10" laneChangeMode="5242898" />
    <vehicle id="vehicle_352_gaussian" type="standard_car" route="W_to_E" depart="458" departLane="random" departSpeed="10" laneChangeMode="5242898" />
    <vehicle id="vehicle_330_rand" type="standard_car" route="E_to_W" depart="461" departLane="random" departSpeed="10" laneChangeMode="5242898" />
    <vehicle id="vehicle_287_rand" type="standard_car" route="W_to_E" depart="472" departLane="random" departSpeed="10" laneChangeMode="5242898" />
    <vehicle id="vehicle_6_rand" type="standard_car" route="S_to_N" depart="473" departLane="random" departSpeed="10" laneChangeMode="5242898" />
    <vehicle id="vehicle_133_gaussian" type="standard_car" route="W_to_N" depart="476" departLane="random" departSpeed="10" laneChangeMode="5242898" />
    <vehicle id="vehicle_98_gaussian" type="standard_car" route="W_to_E" depart="476" departLane="random" departSpeed="10" laneChangeMode="5242898" />
    <vehicle id="vehicle_212_gaussian" type="standard_car" route="W_to_S" depart="478" departLane="random" departSpeed="10" laneChangeMode="5242898" />
    <vehicle id="vehicle_99_gaussian" type="standard_car" route="W_to_E" depart="482" departLane="random" departSpeed="10" laneChangeMode="5242898" />
    <vehicle id="vehicle_218_rand" type="standard_car" route="E_to_S" depart="492" departLane="random" departSpeed="10" laneChangeMode="5242898" />
    <vehicle id="vehicle_147_rand" type="standard_car" route="W_to_E" depart="496" departLane="random" departSpeed="10" laneChangeMode="5242898" />
    <vehicle id="vehicle_203_gaussian" type="standard_car" route="E_to_N" depart="499" departLane="random" departSpeed="10" laneChangeMode="5242898" />
    <vehicle id="vehicle_242_rand" type="standard_car" route="E_to_W" depart="499" departLane="random" departSpeed="10" laneChangeMode="5242898" />
    <vehicle id="vehicle_153_gaussian" type="standard_car" route="W_to_E" depart="501" departLane="random" departSpeed="10" laneChangeMode="5242898" />
    <vehicle id="vehicle_400_rand" type="standard_car" route="S_to_N" depart="501" departLane="random" departSpeed="10" laneChangeMode="5242898" />
    <vehicle id="vehicle_40_gaussian" type="standard_car" route="E_to_W" depart="501" departLane="random" departSpeed="10" laneChangeMode="5242898" />
    <vehicle id="vehicle_219_gaussian" type="standard_car" route="W_to_E" depart="507" departLane="random" departSpeed="10" laneChangeMode="5242898" />
    <vehicle id="vehicle_247_gaussian" type="standard_car" route="W_to_E" depart="507" departLane="random" departSpeed="10" laneChangeMode="5242898" />
    <vehicle id="vehicle_34_gaussian" type="standard_car" route="W_to_E" depart="507" departLane="random" departSpeed="10" laneChangeMode="5242898" />
    <vehicle id="vehicle_312_rand" type="standard_car" route="N_to_S" depart="510" departLane="random" departSpeed="10" laneChangeMode="5242898" />
    <vehicle id="vehicle_552_rand" type="standard_car" route="W_to_E" depart="512" departLane="random" departSpeed="10" laneChangeMode="5242898" />
    <vehicle id="vehicle_353_rand" type="standard_car" route="S_to_N" depart="517" departLane="random" departSpeed="10" laneChangeMode="5242898" />
    <vehicle id="vehicle_159_gaussian" type="standard_car" route="W_to_S" depart="519" departLane="random" departSpeed="10" laneChangeMode="5242898" />
    <vehicle id="vehicle_381_gaussian" type="standard_car" route="W_to_E" depart="520" departLane="random" departSpeed="10" laneChangeMode="5242898" />
    <vehicle id="vehicle_279_gaussian" type="standard_car" route="W_to_E" depart="524" departLane="random" departSpeed="10" laneChangeMode="5242898" />
    <vehicle id="vehicle_452_rand" type="standard_car" route="E_to_W" depart="524" departLane="random" departSpeed="10" laneChangeMode="5242898" />
    <vehicle id="vehicle_30_rand" type="standard_car" route="W_to_E" depart="525" departLane="random" departSpeed="10" laneChangeMode="5242898" />
    <vehicle id="vehicle_390_rand" type="standard_car" route="W_to_E" depart="525" departLane="random" departSpeed="10" laneChangeMode="5242898" />
    <vehicle id="vehicle_287_gaussian" type="standard_car" route="W_to_E" depart="539" departLane="random" departSpeed="10" laneChangeMode="5242898" />
    <vehicle id="vehicle_52_rand" type="standard_car" route="N_to_S" depart="542" departLane="random" departSpeed="10" laneChangeMode="5242898" />
    <vehicle id="vehicle_281_gaussian" type="standard_car" route="E_to_W" depart="543" departLane="random" departSpeed="10" laneChangeMode="5242898" />
    <vehicle id="vehicle_327_rand" type="standard_car" route="N_to_S" depart="543" departLane="random" departSpeed="10" laneChangeMode="5242898" />
    <vehicle id="vehicle_372_gaussian" type="standard_car" route="W_to_N" depart="543" departLane="random" departSpeed="10" laneChangeMode="5242898" />
    <vehicle id="vehicle_146_gaussian" type="standard_car" route="W_to_E" depart="544" departLane="random" departSpeed="10" laneChangeMode="5242898" />
    <vehicle id="vehicle_21_rand" type="standard_car" route="E_to_W" depart="545" departLane="random" departSpeed="10" laneChangeMode="5242898" />
    <vehicle id="vehicle_23_rand" type="standard_car" route="W_to_E" depart="545" departLane="random" departSpeed="10" laneChangeMode="5242898" />
    <vehicle id="vehicle_125_rand" type="standard_car" route="N_to_W" depart="551" departLane="random" departSpeed="10" laneChangeMode="5242898" />
    <vehicle id="vehicle_54_gaussian" type="standard_car" route="W_to_N" depart="551" departLane="random" departSpeed="10" laneChangeMode="5242898" />
    <vehicle id="vehicle_306_gaussian" type="standard_car" route="W_to_E" depart="553" departLane="random" departSpeed="10" laneChangeMode="5242898" />
    <vehicle id="vehicle_196_gaussian" type="standard_car" route="W_to_E" depart="554" departLane="random" departSpeed="10" laneChangeMode="5242898" />
    <vehicle id="vehicle_394_rand" type="standard_car" route="N_to_S" depart="556" departLane="random" departSpeed="10" laneChangeMode="5242898" />
    <vehicle id="vehicle_597_rand" type="standard_car" route="N_to_S" depart="559" departLane="random" departSpeed="10" laneChangeMode="5242898" />
    <vehicle id="vehicle_371_gaussian" type="standard_car" route="W_to_S" depart="560" departLane="random" departSpeed="10" laneChangeMode="5242898" />
    <vehicle id="vehicle_55_gaussian" type="standard_car" route="W_to_E" depart="563" departLane="random" departSpeed="10" laneChangeMode="5242898" />
    <vehicle id="vehicle_358_gaussian" type="standard_car" route="W_to_E" depart="565" departLane="random" departSpeed="10" laneChangeMode="5242898" />
    <vehicle id="vehicle_385_gaussian" type="standard_car" route="W_to_E" depart="568" departLane="random" departSpeed="10" laneChangeMode="5242898" />
    <vehicle id="vehicle_375_gaussian" type="standard_car" route="W_to_E" depart="570" departLane="random" departSpeed="10" laneChangeMode="5242898" />
    <vehicle id="vehicle_3_rand" type="standard_car" route="E_to_W" depart="572" departLane="random" departSpeed="10" laneChangeMode="5242898" />
    <vehicle id="vehicle_300_gaussian" type="standard_car" route="W_to_E" depart="576" departLane="random" departSpeed="10" laneChangeMode="5242898" />
    <vehicle id="vehicle_170_rand" type="standard_car" route="N_to_S" depart="578" departLane="random" departSpeed="10" laneChangeMode="5242898" />
    <vehicle id="vehicle_192_gaussian" type="standard_car" route="W_to_S" depart="585" departLane="random" departSpeed="10" laneChangeMode="5242898" />
    <vehicle id="vehicle_104_gaussian" type="standard_car" route="E_to_S" depart="586" departLane="random" departSpeed="10" laneChangeMode="5242898" />
    <vehicle id="vehicle_384_gaussian" type="standard_car" route="W_to_E" depart="590" departLane="random" departSpeed="10" laneChangeMode="5242898" />
    <vehicle id="vehicle_61_gaussian" type="standard_car" route="W_to_E" depart="590" departLane="random" departSpeed="10" laneChangeMode="5242898" />
    <vehicle id="vehicle_308_gaussian" type="standard_car" route="W_to_N" depart="596" departLane="random" departSpeed="10" laneChangeMode="5242898" />
    <vehicle id="vehicle_187_gaussian" type="standard_car" route="W_to_N" depart="599" departLane="random" departSpeed="10" laneChangeMode="5242898" />
    <vehicle id="vehicle_28_gaussian" type="standard_car" route="W_to_E" depart="601" departLane="random" departSpeed="10" laneChangeMode="5242898" />
    <vehicle id="vehicle_352_rand" type="standard_car" route="E_to_W" depart="613" departLane="random" departSpeed="10" laneChangeMode="5242898" />
    <vehicle id="vehicle_363_rand" type="standard_car" route="S_to_N" depart="613" departLane="random" departSpeed="10" laneChangeMode="5242898" />
    <vehicle id="vehicle_370_rand" type="standard_car" route="S_to_N" depart="615" departLane="random" departSpeed="10" laneChangeMode="5242898" />
    <vehicle id="vehicle_310_gaussian" type="standard_car" route="E_to_W" depart="616" departLane="random" departSpeed="10" laneChangeMode="5242898" />
    <vehicle id="vehicle_264_gaussian" type="standard_car" route="W_to_E" depart="623" departLane="random" departSpeed="10" laneChangeMode="5242898" />
    <vehicle id="vehicle_149_gaussian" type="standard_car" route="W_to_E" depart="625" departLane="random" departSpeed="10" laneChangeMode="5242898" />
    <vehicle id="vehicle_285_rand" type="standard_car" route="N_to_E" depart="626" departLane="random" departSpeed="10" laneChangeMode="5242898" />
    <vehicle id="vehicle_102_gaussian" type="standard_car" route="W_to_N" depart="627" departLane="random" departSpeed="10" laneChangeMode="5242898" />
    <vehicle id="vehicle_16_gaussian" type="standard_car" route="E_to_W" depart="629" departLane="random" departSpeed="10" laneChangeMode="5242898" />
    <vehicle id="vehicle_393_gaussian" type="standard_car" route="W_to_N" depart="629" departLane="random" departSpeed="10" laneChangeMode="5242898" />
    <vehicle id="vehicle_23_gaussian" type="standard_car" route="W_to_E" depart="630" departLane="random" departSpeed="10" laneChangeMode="5242898" />
    <vehicle id="vehicle_263_gaussian" type="standard_car" route="W_to_E" depart="630" departLane="random" departSpeed="10" laneChangeMode="5242898" />
    <vehicle id="vehicle_323_gaussian" type="standard_car" route="W_to_E" depart="630" departLane="random" departSpeed="10" laneChangeMode="5242898" />
    <vehicle id="vehicle_542_rand" type="standard_car" route="W_to_E" depart="630" departLane="random" departSpeed="10" laneChangeMode="5242898" />
    <vehicle id="vehicle_349_rand" type="standard_car" route="E_to_W" depart="635" departLane="random" departSpeed="10" laneChangeMode="5242898" />
    <vehicle id="vehicle_56_rand" type="standard_car" route="S_to_N" depart="637" departLane="random" departSpeed="10" laneChangeMode="5242898" />
    <vehicle id="vehicle_368_gaussian" type="standard_car" route="W_to_E" depart="638" departLane="random" departSpeed="10" laneChangeMode="5242898" />
    <vehicle id="vehicle_491_rand" type="standard_car" route="S_to_N" depart="639" departLane="random" departSpeed="10" laneChangeMode="5242898" />
    <vehicle id="vehicle_60_gaussian" type="standard_car" route="E_to_S" depart="639" departLane="random" departSpeed="10" laneChangeMode="5242898" />
    <vehicle id="vehicle_257_rand" type="standard_car" route="S_to_N" depart="643" departLane="random" departSpeed="10" laneChangeMode="5242898" />
    <vehicle id="vehicle_223_rand" type="standard_car" route="S_to_E" depart="648" departLane="random" departSpeed="10" laneChangeMode="5242898" />
    <vehicle id="vehicle_295_gaussian" type="standard_car" route="W_to_E" depart="651" departLane="random" departSpeed="10" laneChangeMode="5242898" />
    <vehicle id="vehicle_274_gaussian" type="standard_car" route="W_to_E" depart="652" departLane="random" departSpeed="10" laneChangeMode="5242898" />
    <vehicle id="vehicle_267_rand" type="standard_car" route="E_to_W" depart="654" departLane="random" departSpeed="10" laneChangeMode="5242898" />
    <vehicle id="vehicle_109_gaussian" type="standard_car" route="W_to_E" depart="655" departLane="random" departSpeed="10" laneChangeMode="5242898" />
    <vehicle id="vehicle_161_gaussian" type="standard_car" route="W_to_S" depart="655" departLane="random" departSpeed="10" laneChangeMode="5242898" />
    <vehicle id="vehicle_75_gaussian" type="standard_car" route="W_to_E" depart="655" departLane="random" departSpeed="10" laneChangeMode="5242898" />
    <vehicle id="vehicle_103_gaussian" type="standard_car" route="W_to_E" depart="656" departLane="random" departSpeed="10" laneChangeMode="5242898" />
    <vehicle id="vehicle_447_rand" type="standard_car" route="S_to_N" depart="659" departLane="random" departSpeed="10" laneChangeMode="5242898" />
    <vehicle id="vehicle_420_rand" type="standard_car" route="S_to_N" depart="661" departLane="random" departSpeed="10" laneChangeMode="5242898" />
    <vehicle id="vehicle_327_gaussian" type="standard_car" route="W_to_E" depart="665" departLane="random" departSpeed="10" laneChangeMode="5242898" />
    <vehicle id="vehicle_234_gaussian" type="standard_car" route="W_to_E" depart="666" departLane="random" departSpeed="10" laneChangeMode="5242898" />
    <vehicle id="vehicle_88_gaussian" type="standard_car" route="W_to_S" depart="667" departLane="random" departSpeed="10" laneChangeMode="5242898" />
    <vehicle id="vehicle_558_rand" type="standard_car" route="W_to_E" depart="668" departLane="random" departSpeed="10" laneChangeMode="5242898" />
    <vehicle id="vehicle_115_gaussian" type="standard_car" route="E_to_W" depart="669" departLane="random" departSpeed="10" laneChangeMode="5242898" />
    <vehicle id="vehicle_131_gaussian" type="standard_car" route="W_to_E" depart="670" departLane="random" departSpeed="10" laneChangeMode="5242898" />
    <vehicle id="vehicle_475_rand" type="standard_car" route="N_to_S" depart="670" departLane="random" departSpeed="10" laneChangeMode="5242898" />
    <vehicle id="vehicle_247_rand" type="standard_car" route="W_to_E" depart="671" departLane="random" departSpeed="10" laneChangeMode="5242898" />
    <vehicle id="vehicle_314_gaussian" type="standard_car" route="E_to_W" depart="671" departLane="random" departSpeed="10" laneChangeMode="5242898" />
    <vehicle id="vehicle_123_gaussian" type="standard_car" route="W_to_N" depart="673" departLane="random" departSpeed="10" laneChangeMode="5242898" />
    <vehicle id="vehicle_459_rand" type="standard_car" route="E_to_W" depart="673" departLane="random" departSpeed="10" laneChangeMode="5242898" />
    <vehicle id="vehicle_140_rand" type="standard_car" route="N_to_S" depart="674" departLane="random" departSpeed="10" laneChangeMode="5242898" />
    <vehicle id="vehicle_391_gaussian" type="standard_car" route="E_to_S" depart="675" departLane="random" departSpeed="10" laneChangeMode="5242898" />
    <vehicle id="vehicle_91_rand" type="standard_car" route="S_to_N" depart="675" departLane="random" departSpeed="10" laneChangeMode="5242898" />
    <vehicle id="vehicle_167_gaussian" type="standard_car" route="W_to_E" depart="680" departLane="random" departSpeed="10" laneChangeMode="5242898" />
    <vehicle id="vehicle_32_gaussian" type="standard_car" route="W_to_E" depart="680" departLane="random" departSpeed="10" laneChangeMode="5242898" />
    <vehicle id="vehicle_31_gaussian" type="standard_car" route="W_to_N" depart="682" departLane="random" departSpeed="10" laneChangeMode="5242898" />
    <vehicle id="vehicle_326_rand" type="standard_car" route="N_to_S" depart="685" departLane="random" departSpeed="10" laneChangeMode="5242898" />
    <vehicle id="vehicle_360_gaussian" type="standard_car" route="W_to_N" depart="687" departLane="random" departSpeed="10" laneChangeMode="5242898" />
    <vehicle id="vehicle_519_rand" type="standard_car" route="S_to_N" depart="691" departLane="random" departSpeed="10" laneChangeMode="5242898" />
    <vehicle id="vehicle_184_gaussian" type="standard_car" route="W_to_E" depart="695" departLane="random" departSpeed="10" laneChangeMode="5242898" />
    <vehicle id="vehicle_166_gaussian" type="standard_car" route="W_to_E" depart="696" departLane="random" departSpeed="10" laneChangeMode="5242898" />
    <vehicle id="vehicle_174_gaussian" type="standard_car" route="E_to_W" depart="696" departLane="random" departSpeed="10" laneChangeMode="5242898" />
    <vehicle id="vehicle_11_gaussian" type="standard_car" route="W_to_E" depart="697" departLane="random" departSpeed="10" laneChangeMode="5242898" />
    <vehicle id="vehicle_5_gaussian" type="standard_car" route="W_to_E" depart="697" departLane="random" departSpeed="10" laneChangeMode="5242898" />
    <vehicle id="vehicle_278_rand" type="standard_car" route="N_to_S" depart="700" departLane="random" departSpeed="10" laneChangeMode="5242898" />
    <vehicle id="vehicle_106_gaussian" type="standard_car" route="E_to_W" depart="701" departLane="random" departSpeed="10" laneChangeMode="5242898" />
    <vehicle id="vehicle_268_gaussian" type="standard_car" route="E_to_W" depart="702" departLane="random" departSpeed="10" laneChangeMode="5242898" />
    <vehicle id="vehicle_162_rand" type="standard_car" route="E_to_W" depart="705" departLane="random" departSpeed="10" laneChangeMode="5242898" />
    <vehicle id="vehicle_244_gaussian" type="standard_car" route="W_to_E" depart="705" departLane="random" departSpeed="10" laneChangeMode="5242898" />
    <vehicle id="vehicle_261_gaussian" type="standard_car" route="W_to_S" depart="705" departLane="random" departSpeed="10" laneChangeMode="5242898" />
    <vehicle id="vehicle_233_gaussian" type="standard_car" route="W_to_S" depart="706" departLane="random" departSpeed="10" laneChangeMode="5242898" />
    <vehicle id="vehicle_386_gaussian" type="standard_car" route="W_to_E" depart="707" departLane="random" departSpeed="10" laneChangeMode="5242898" />
    <vehicle id="vehicle_341_rand" type="standard_car" route="S_to_N" depart="711" departLane="random" departSpeed="10" laneChangeMode="5242898" />
    <vehicle id="vehicle_229_gaussian" type="standard_car" route="E_to_W" depart="712" departLane="random" departSpeed="10" laneChangeMode="5242898" />
    <vehicle id="vehicle_58_gaussian" type="standard_car" route="W_to_S" depart="712" departLane="random" departSpeed="10" laneChangeMode="5242898" />
    <vehicle id="vehicle_227_gaussian" type="standard_car" route="E_to_S" depart="713" departLane="random" departSpeed="10" laneChangeMode="5242898" />