                
<routes>
            <vType accel="1.0" decel="4.5" id="standard_car" length="5.0" minGap="2.5" maxSpeed="25" sigma="0.5" laneChangeMode="5242898"/>
            
            <!-- route definition (the car route) -->

            <route id="W_to_N" edges="W_in N_out"/>
            <route id="W_to_E" edges="W_in E_out"/>
            <route id="W_to_S" edges="W_in S_out"/>
            <route id="N_to_W" edges="N_in W_out"/>
            <route id="N_to_E" edges="N_in E_out"/>
            <route id="N_to_S" edges="N_in S_out"/>
            <route id="E_to_W" edges="E_in W_out"/>
            <route id="E_to_N" edges="E_in N_out"/>
            <route id="E_to_S" edges="E_in S_out"/>
            <route id="S_to_W" edges="S_in W_out"/>
            <route id="S_to_N" edges="S_in N_out"/>
            <route id="S_to_E" edges="S_in E_out"/>
    <vehicle id="vehicle_396_rand" type="standard_car" route="W_to_S" depart="7" departLane="random" departSpeed="10" laneChangeMode="5242898" />
    <vehicle id="vehicle_13_rand" type="standard_car" route="W_to_E" depart="11" departLane="random" departSpeed="10" laneChangeMode="5242898" />
    <vehicle id="vehicle_115_rand" type="standard_car" route="W_to_E" depart="13" departLane="random" departSpeed="10" laneChangeMode="5242898" />
    <vehicle id="vehicle_326_rand" type="standard_car" route="E_to_W" depart="14" departLane="random" departSpeed="10" laneChangeMode="5242898" />
    <vehicle id="vehicle_53_rand" type="standard_car" route="S_to_E" depart="23" departLane="random" departSpeed="10" laneChangeMode="5242898" />
    <vehicle id="vehicle_571_rand" type="standard_car" route="W_to_E" depart="25" departLane="random" departSpeed="10" laneChangeMode="5242898" />
    <vehicle id="vehicle_269_rand" type="standard_car" route="E_to_W" depart="27" departLane="random" departSpeed="10" laneChangeMode="5242898" />
    <vehicle id="vehicle_580_rand" type="standard_car" route="W_to_E" depart="28" departLane="random" departSpeed="10" laneChangeMode="5242898" />
    <vehicle id="vehicle_127_rand" type="standard_car" route="N_to_S" depart="36" departLane="random" departSpeed="10" laneChangeMode="5242898" />
    <vehicle id="vehicle_542_rand" type="standard_car" route="N_to_S" depart="38" departLane="random" departSpeed="10" laneChangeMode="5242898" />
    <vehicle id="vehicle_197_rand" type="standard_car" route="N_to_E" depart="40" departLane="random" departSpeed="10" laneChangeMode="5242898" />
    <vehicle id="vehicle_168_rand" type="standard_car" route="W_to_E" depart="41" departLane="random" departSpeed="10" laneChangeMode="5242898" />
    <vehicle id="vehicle_597_rand" type="standard_car" route="S_to_N" depart="55" departLane="random" departSpeed="10" laneChangeMode="5242898" />
    <vehicle id="vehicle_528_rand" type="standard_car" route="S_to_W" depart="56" departLane="random" departSpeed="10" laneChangeMode="5242898" />
    <vehicle id="vehicle_410_rand" type="standard_car" route="E_to_W" depart="57" departLane="random" departSpeed="10" laneChangeMode="5242898" />
    <vehicle id="vehicle_19_rand" type="standard_car" route="E_to_S" depart="69" departLane="random" departSpeed="10" laneChangeMode="5242898" />
    <vehicle id="vehicle_287_rand" type="standard_car" route="E_to_W" depart="78" departLane="random" departSpeed="10" laneChangeMode="5242898" />
    <vehicle id="vehicle_307_rand" type="standard_car" route="S_to_N" depart="82" departLane="random" departSpeed="10" laneChangeMode="5242898" />
    <vehicle id="vehicle_465_rand" type="standard_car" route="W_to_E" depart="86" departLane="random" departSpeed="10" laneChangeMode="5242898" />
    <vehicle id="vehicle_530_rand" type="standard_car" route="S_to_N" depart="86" departLane="random" departSpeed="10" laneChangeMode="5242898" />
    <vehicle id="vehicle_288_rand" type="standard_car" route="S_to_N" depart="97" departLane="random" departSpeed="10" laneChangeMode="5242898" />
    <vehicle id="vehicle_107_rand" type="standard_car" route="E_to_W" depart="98" departLane="random" departSpeed="10" laneChangeMode="5242898" />
    <vehicle id="vehicle_390_rand" type="standard_car" route="N_to_S" depart="98" departLane="random" departSpeed="10" laneChangeMode="5242898" />
    <vehicle id="vehicle_508_rand" type="standard_car" route="W_to_E" depart="99" departLane="random" departSpeed="10" laneChangeMode="5242898" />
    <vehicle id="vehicle_315_rand" type="standard_car" route="S_to_N" depart="104" departLane="random" departSpeed="10" laneChangeMode="5242898" />
    <vehicle id="vehicle_420_rand" type="standard_car" route="S_to_N" depart="104" departLane="random" departSpeed="10" laneChangeMode="5242898" />
    <vehicle id="vehicle_289_rand" type="standard_car" route="S_to_N" depart="106" departLane="random" departSpeed="10" laneChangeMode="5242898" />
    <vehicle id="vehicle_254_rand" type="standard_car" route="S_to_N" depart="118" departLane="random" departSpeed="10" laneChangeMode="5242898" />
    <vehicle id="vehicle_205_rand" type="standard_car" route="N_to_W" depart="131" departLane="random" departSpeed="10" laneChangeMode="5242898" />
    <vehicle id="vehicle_593_rand" type="standard_car" route="S_to_N" depart="135" departLane="random" departSpeed="10" laneChangeMode="5242898" />
    <vehicle id="vehicle_445_rand" type="standard_car" route="N_to_W" depart="139" departLane="random" departSpeed="10" laneChangeMode="5242898" />
    <vehicle id="vehicle_460_rand" type="standard_car" route="S_to_N" depart="140" departLane="random" departSpeed="10" laneChangeMode="5242898" />
    <vehicle id="vehicle_492_rand" type="standard_car" route="W_to_E" depart="142" departLane="random" departSpeed="10" laneChangeMode="5242898" />
    <vehicle id="vehicle_147_rand" type="standard_car" route="E_to_W" depart="146" departLane="random" departSpeed="10" laneChangeMode="5242898" />
    <vehicle id="vehicle_567_rand" type="standard_car" route="S_to_W" depart="154" departLane="random" departSpeed="10" laneChangeMode="5242898" />
    <vehicle id="vehicle_300_rand" type="standard_car" route="E_to_W" depart="155" departLane="random" departSpeed="10" laneChangeMode="5242898" />
    <vehicle id="vehicle_487_rand" type="standard_car" route="E_to_W" depart="161" departLane="random" departSpeed="10" laneChangeMode="5242898" />
    <vehicle id="vehicle_321_rand" type="standard_car" route="N_to_E" depart="170" departLane="random" departSpeed="10" laneChangeMode="5242898" />
    <vehicle id="vehicle_233_rand" type="standard_car" route="N_to_S" depart="171" departLane="random" departSpeed="10" laneChangeMode="5242898" />
    <vehicle id="vehicle_3_rand" type="standard_car" route="W_to_E" depart="189" departLane="random" departSpeed="10" laneChangeMode="5242898" />
    <vehicle id="vehicle_100_rand" type="standard_car" route="W_to_E" depart="190" departLane="random" departSpeed="10" laneChangeMode="5242898" />
    <vehicle id="vehicle_35_rand" type="standard_car" route="E_to_W" depart="199" departLane="random" departSpeed="10" laneChangeMode="5242898" />
    <vehicle id="vehicle_248_rand" type="standard_car" route="S_to_N" depart="202" departLane="random" departSpeed="10" laneChangeMode="5242898" />
    <vehicle id="vehicle_50_rand" type="standard_car" route="N_to_S" depart="207" departLane="random" departSpeed="10" laneChangeMode="5242898" />
    <vehicle id="vehicle_116_rand" type="standard_car" route="E_to_W" depart="210" departLane="random" departSpeed="10" laneChangeMode="5242898" />
    <vehicle id="vehicle_319_rand" type="standard_car" route="E_to_W" depart="213" departLane="random" departSpeed="10" laneChangeMode="5242898" />
    <vehicle id="vehicle_79_rand" type="standard_car" route="E_to_W" depart="216" departLane="random" departSpeed="10" laneChangeMode="5242898" />
    <vehicle id="vehicle_500_rand" type="standard_car" route="N_to_S" depart="222" departLane="random" departSpeed="10" laneChangeMode="5242898" />
    <vehicle id="vehicle_479_rand" type="standard_car" route="S_to_N" depart="223" departLane="random" departSpeed="10" laneChangeMode="5242898" />
    <vehicle id="vehicle_349_rand" type="standard_car" route="S_to_N" depart="233" departLane="random" departSpeed="10" laneChangeMode="5242898" />
    <vehicle id="vehicle_57_rand" type="standard_car" route="N_to_S" depart="233" departLane="random" departSpeed="10" laneChangeMode="5242898" />
    <vehicle id="vehicle_338_rand" type="standard_car" route="W_to_E" depart="234" departLane="random" departSpeed="10" laneChangeMode="5242898" />
    <vehicle id="vehicle_553_rand" type="standard_car" route="S_to_W" depart="235" departLane="random" departSpeed="10" laneChangeMode="5242898" />
    <vehicle id="vehicle_23_rand" type="standard_car" route="S_to_N" depart="237" departLane="random" departSpeed="10" laneChangeMode="5242898" />
    <vehicle id="vehicle_136_rand" type="standard_car" route="N_to_S" depart="239" departLane="random" departSpeed="10" laneChangeMode="5242898" />
    <vehicle id="vehicle_156_gaussian" type="standard_car" route="W_to_E" depart="239" departLane="random" departSpeed="10" laneChangeMode="5242898" />
    <vehicle id="vehicle_454_rand" type="standard_car" route="N_to_W" depart="244" departLane="random" departSpeed="10" laneChangeMode="5242898" />
    <vehicle id="vehicle_413_rand" type="standard_car" route="S_to_E" depart="247" departLane="random" departSpeed="10" laneChangeMode="5242898" />
    <vehicle id="vehicle_48_rand" type="standard_car" route="S_to_N" depart="254" departLane="random" departSpeed="10" laneChangeMode="5242898" />
    <vehicle id="vehicle_111_rand" type="standard_car" route="E_to_W" depart="266" departLane="random" departSpeed="10" laneChangeMode="5242898" />
    <vehicle id="vehicle_400_rand" type="standard_car" route="S_to_N" depart="266" departLane="random" departSpeed="10" laneChangeMode="5242898" />
    <vehicle id="vehicle_433_rand" type="standard_car" route="N_to_S" depart="267" departLane="random" departSpeed="10" laneChangeMode="5242898" />
    <vehicle id="vehicle_45_rand" type="standard_car" route="N_to_S" depart="274" departLane="random" departSpeed="10" laneChangeMode="5242898" />
    <vehicle id="vehicle_586_rand" type="standard_car" route="E_to_N" depart="274" departLane="random" departSpeed="10" laneChangeMode="5242898" />
    <vehicle id="vehicle_176_rand" type="standard_car" route="N_to_E" depart="285" departLane="random" departSpeed="10" laneChangeMode="5242898" />
    <vehicle id="vehicle_78_gaussian" type="standard_car" route="W_to_E" depart="289" departLane="random" departSpeed="10" laneChangeMode="5242898" />
    <vehicle id="vehicle_154_rand" type="standard_car" route="S_to_N" depart="292" departLane="random" departSpeed="10" laneChangeMode="5242898" />
    <vehicle id="vehicle_596_rand" type="standard_car" route="W_to_N" depart="293" departLane="random" departSpeed="10" laneChangeMode="5242898" />
    <vehicle id="vehicle_8_rand" type="standard_car" route="S_to_N" depart="293" departLane="random" departSpeed="10" laneChangeMode="5242898" />
    <vehicle id="vehicle_407_rand" type="standard_car" route="E_to_N" depart="294" departLane="random" departSpeed="10" laneChangeMode="5242898" />
    <vehicle id="vehicle_316_gaussian" type="standard_car" route="W_to_E" depart="295" departLane="random" departSpeed="10" laneChangeMode="5242898" />
    <vehicle id="vehicle_374_rand" type="standard_car" route="S_to_N" depart="299" departLane="random" departSpeed="10" laneChangeMode="5242898" />
    <vehicle id="vehicle_98_gaussian" type="standard_car" route="W_to_E" depart="303" departLane="random" departSpeed="10" laneChangeMode="5242898" />
    <vehicle id="vehicle_513_rand" type="standard_car" route="N_to_S" depart="305" departLane="random" departSpeed="10" laneChangeMode="5242898" />
    <vehicle id="vehicle_547_rand" type="standard_car" route="S_to_N" depart="305" departLane="random" departSpeed="10" laneChangeMode="5242898" />
    <vehicle id="vehicle_395_gaussian" type="standard_car" route="W_to_E" depart="307" departLane="random" departSpeed="10" laneChangeMode="5242898" />
    <vehicle id="vehicle_374_gaussian" type="standard_car" route="W_to_S" depart="310" departLane="random" departSpeed="10" laneChangeMode="5242898" />
    <vehicle id="vehicle_88_gaussian" type="standard_car" route="W_to_E" depart="316" departLane="random" departSpeed="10" laneChangeMode="5242898" />
    <vehicle id="vehicle_402_rand" type="standard_car" route="E_to_W" depart="317" departLane="random" departSpeed="10" laneChangeMode="5242898" />
    <vehicle id="vehicle_399_gaussian" type="standard_car" route="W_to_E" depart="322" departLane="random" departSpeed="10" laneChangeMode="5242898" />
    <vehicle id="vehicle_68_gaussian" type="standard_car" route="W_to_E" depart="330" departLane="random" departSpeed="10" laneChangeMode="5242898" />
    <vehicle id="vehicle_368_gaussian" type="standard_car" route="W_to_E" depart="332" departLane="random" departSpeed="10" laneChangeMode="5242898" />
    <vehicle id="vehicle_120_gaussian" type="standard_car" route="W_to_E" depart="333" departLane="random" departSpeed="10" laneChangeMode="5242898" />
    <vehicle id="vehicle_356_gaussian" type="standard_car" route="W_to_E" depart="333" departLane="random" departSpeed="10" laneChangeMode="5242898" />
    <vehicle id="vehicle_343_rand" type="standard_car" route="E_to_W" depart="338" departLane="random" departSpeed="10" laneChangeMode="5242898" />
    <vehicle id="vehicle_180_gaussian" type="standard_car" route="W_to_E" depart="340" departLane="random" departSpeed="10" laneChangeMode="5242898" />
    <vehicle id="vehicle_252_rand" type="standard_car" route="S_to_N" depart="345" departLane="random" departSpeed="10" laneChangeMode="5242898" />
    <vehicle id="vehicle_431_rand" type="standard_car" route="N_to_S" depart="347" departLane="random" departSpeed="10" laneChangeMode="5242898" />
    <vehicle id="vehicle_538_rand" type="standard_car" route="N_to_W" depart="347" departLane="random" departSpeed="10" laneChangeMode="5242898" />
    <vehicle id="vehicle_444_rand" type="standard_car" route="E_to_W" depart="348" departLane="random" departSpeed="10" laneChangeMode="5242898" />
    <vehicle id="vehicle_60_gaussian" type="standard_car" route="W_to_S" depart="348" departLane="random" departSpeed="10" laneChangeMode="5242898" />
    <vehicle id="vehicle_42_rand" type="standard_car" route="E_to_W" depart="351" departLane="random" departSpeed="10" laneChangeMode="5242898" />
    <vehicle id="vehicle_397_gaussian" type="standard_car" route="W_to_N" depart="352" departLane="random" departSpeed="10" laneChangeMode="5242898" />
    <vehicle id="vehicle_375_gaussian" type="standard_car" route="W_to_S" depart="355" departLane="random" departSpeed="10" laneChangeMode="5242898" />
    <vehicle id="vehicle_119_rand" type="standard_car" route="S_to_N" depart="357" departLane="random" departSpeed="10" laneChangeMode="5242898" />
    <vehicle id="vehicle_247_gaussian" type="standard_car" route="W_to_E" depart="357" departLane="random" departSpeed="10" laneChangeMode="5242898" />
    <vehicle id="vehicle_381_rand" type="standard_car" route="S_to_N" depart="357" departLane="random" departSpeed="10" laneChangeMode="5242898" />
    <vehicle id="vehicle_54_gaussian" type="standard_car" route="W_to_E" depart="358" departLane="random" departSpeed="10" laneChangeMode="5242898" />
    <vehicle id="vehicle_200_gaussian" type="standard_car" route="W_to_E" depart="364" departLane="random" departSpeed="10" laneChangeMode="5242898" />
    <vehicle id="vehicle_44_gaussian" type="standard_car" route="W_to_E" depart="364" departLane="random" departSpeed="10" laneChangeMode="5242898" />
    <vehicle id="vehicle_204_gaussian" type="standard_car" route="W_to_E" depart="365" departLane="random" departSpeed="10" laneChangeMode="5242898" />
    <vehicle id="vehicle_297_rand" type="standard_car" route="S_to_N" depart="366" departLane="random" departSpeed="10" laneChangeMode="5242898" />
    <vehicle id="vehicle_17_gaussian" type="standard_car" route="W_to_E" depart="367" departLane="random" departSpeed="10" laneChangeMode="5242898" />
    <vehicle id="vehicle_350_gaussian" type="standard_car" route="W_to_E" depart="368" departLane="random" departSpeed="10" laneChangeMode="5242898" />
    <vehicle id="vehicle_442_rand" type="standard_car" route="E_to_W" depart="372" departLane="random" departSpeed="10" laneChangeMode="5242898" />
    <vehicle id="vehicle_342_gaussian" type="standard_car" route="W_to_E" depart="375" departLane="random" departSpeed="10" laneChangeMode="5242898" />
    <vehicle id="vehicle_121_gaussian" type="standard_car" route="W_to_E" depart="378" departLane="random" departSpeed="10" laneChangeMode="5242898" />
    <vehicle id="vehicle_162_rand" type="standard_car" route="S_to_N" depart="378" departLane="random" departSpeed="10" laneChangeMode="5242898" />
    <vehicle id="vehicle_181_gaussian" type="standard_car" route="W_to_E" depart="378" departLane="random" departSpeed="10" laneChangeMode="5242898" />
    <vehicle id="vehicle_367_gaussian" type="standard_car" route="W_to_E" depart="379" departLane="random" departSpeed="10" laneChangeMode="5242898" />
    <vehicle id="vehicle_166_gaussian" type="standard_car" route="W_to_E" depart="381" departLane="random" departSpeed="10" laneChangeMode="5242898" />
    <vehicle id="vehicle_168_gaussian" type="standard_car" route="W_to_E" depart="383" departLane="random" departSpeed="10" laneChangeMode="5242898" />
    <vehicle id="vehicle_313_gaussian" type="standard_car" route="W_to_E" depart="384" departLane="random" departSpeed="10" laneChangeMode="5242898" />
    <vehicle id="vehicle_151_gaussian" type="standard_car" route="W_to_E" depart="389" departLane="random" departSpeed="10" laneChangeMode="5242898" />
    <vehicle id="vehicle_79_gaussian" type="standard_car" route="W_to_E" depart="390" departLane="random" departSpeed="10" laneChangeMode="5242898" />
    <vehicle id="vehicle_531_rand" type="standard_car" route="W_to_E" depart="392" departLane="random" departSpeed="10" laneChangeMode="5242898" />
    <vehicle id="vehicle_175_gaussian" type="standard_car" route="W_to_E" depart="393" departLane="random" departSpeed="10" laneChangeMode="5242898" />
    <vehicle id="vehicle_2_gaussian" type="standard_car" route="W_to_E" depart="394" departLane="random" departSpeed="10" laneChangeMode="5242898" />
    <vehicle id="vehicle_184_gaussian" type="standard_car" route="W_to_E" depart="395" departLane="random" departSpeed="10" laneChangeMode="5242898" />
    <vehicle id="vehicle_240_rand" type="standard_car" route="E_to_S" depart="395" departLane="random" departSpeed="10" laneChangeMode="5242898" />
    <vehicle id="vehicle_308_gaussian" type="standard_car" route="W_to_E" depart="395" departLane="random" departSpeed="10" laneChangeMode="5242898" />
    <vehicle id="vehicle_263_gaussian" type="standard_car" route="W_to_E" depart="396" departLane="random" departSpeed="10" laneChangeMode="5242898" />
    <vehicle id="vehicle_32_gaussian" type="standard_car" route="W_to_E" depart="396" departLane="random" departSpeed="10" laneChangeMode="5242898" />
    <vehicle id="vehicle_280_rand" type="standard_car" route="S_to_W" depart="398" departLane="random" departSpeed="10" laneChangeMode="5242898" />
    <vehicle id="vehicle_170_gaussian" type="standard_car" route="W_to_E" depart="399" departLane="random" departSpeed="10" laneChangeMode="5242898" />
    <vehicle id="vehicle_318_gaussian" type="standard_car" route="W_to_E" depart="400" departLane="random" departSpeed="10" laneChangeMode="5242898" />
    <vehicle id="vehicle_276_gaussian" type="standard_car" route="W_to_E" depart="403" departLane="random" departSpeed="10" laneChangeMode="5242898" />
    <vehicle id="vehicle_97_gaussian" type="standard_car" route="W_to_E" depart="404" departLane="random" departSpeed="10" laneChangeMode="5242898" />
    <vehicle id="vehicle_73_gaussian" type="standard_car" route="W_to_E" depart="405" departLane="random" departSpeed="10" laneChangeMode="5242898" />
    <vehicle id="vehicle_216_gaussian" type="standard_car" route="W_to_E" depart="406" departLane="random" departSpeed="10" laneChangeMode="5242898" />
    <vehicle id="vehicle_139_rand" type="standard_car" route="S_to_N" depart="407" departLane="random" departSpeed="10" laneChangeMode="5242898" />
    <vehicle id="vehicle_292_gaussian" type="standard_car" route="W_to_E" depart="407" departLane="random" departSpeed="10" laneChangeMode="5242898" />
    <vehicle id="vehicle_331_gaussian" type="standard_car" route="W_to_E" depart="409" departLane="random" departSpeed="10" laneChangeMode="5242898" />
    <vehicle id="vehicle_316_rand" type="standard_car" route="E_to_W" depart="410" departLane="random" departSpeed="10" laneChangeMode="5242898" />
    <vehicle id="vehicle_104_gaussian" type="standard_car" route="W_to_E" depart="412" departLane="random" departSpeed="10" laneChangeMode="5242898" />
    <vehicle id="vehicle_0_gaussian" type="standard_car" route="W_to_E" depart="414" departLane="random" departSpeed="10" laneChangeMode="5242898" />
    <vehicle id="vehicle_23_gaussian" type="standard_car" route="W_to_E" depart="414" departLane="random" departSpeed="10" laneChangeMode="5242898" />
    <vehicle id="vehicle_163_rand" type="standard_car" route="S_to_N" depart="420" departLane="random" departSpeed="10" laneChangeMode="5242898" />
    <vehicle id="vehicle_210_gaussian" type="standard_car" route="W_to_E" depart="424" departLane="random" departSpeed="10" laneChangeMode="5242898" />
    <vehicle id="vehicle_275_gaussian" type="standard_car" route="W_to_E" depart="424" departLane="random" departSpeed="10" laneChangeMode="5242898" />
    <vehicle id="vehicle_31_gaussian" type="standard_car" route="W_to_E" depart="424" departLane="random" departSpeed="10" laneChangeMode="5242898" />
    <vehicle id="vehicle_38_rand" type="standard_car" route="W_to_E" depart="424" departLane="random" departSpeed="10" laneChangeMode="5242898" />
    <vehicle id="vehicle_164_rand" type="standard_car" route="S_to_N" depart="426" departLane="random" departSpeed="10" laneChangeMode="5242898" />
    <vehicle id="vehicle_189_gaussian" type="standard_car" route="W_to_E" depart="426" departLane="random" departSpeed="10" laneChangeMode="5242898" />
    <vehicle id="vehicle_95_rand" type="standard_car" route="E_to_W" depart="428" departLane="random" departSpeed="10" laneChangeMode="5242898" />
    <vehicle id="vehicle_122_gaussian" type="standard_car" route="W_to_E" depart="433" departLane="random" departSpeed="10" laneChangeMode="5242898" />
    <vehicle id="vehicle_123_gaussian" type="standard_car" route="W_to_N" depart="433" departLane="random" departSpeed="10" laneChangeMode="5242898" />
    <vehicle id="vehicle_419_rand" type="standard_car" route="E_to_W" depart="433" departLane="random" departSpeed="10" laneChangeMode="5242898" />
    <vehicle id="vehicle_266_gaussian" type="standard_car" route="W_to_E" depart="436" departLane="random" departSpeed="10" laneChangeMode="5242898" />
    <vehicle id="vehicle_29_gaussian" type="standard_car" route="W_to_E" depart="436" departLane="random" departSpeed="10" laneChangeMode="5242898" />
    <vehicle id="vehicle_75_gaussian" type="standard_car" route="W_to_E" depart="441" departLane="random" departSpeed="10" laneChangeMode="5242898" />
    <vehicle id="vehicle_18_rand" type="standard_car" route="W_to_E" depart="445" departLane="random" departSpeed="10" laneChangeMode="5242898" />
    <vehicle id="vehicle_315_gaussian" type="standard_car" route="W_to_E" depart="447" departLane="random" departSpeed="10" laneChangeMode="5242898" />
    <vehicle id="vehicle_28_rand" type="standard_car" route="W_to_S" depart="454" departLane="random" departSpeed="10" laneChangeMode="5242898" />
    <vehicle id="vehicle_234_gaussian" type="standard_car" route="W_to_S" depart="455" departLane="random" departSpeed="10" laneChangeMode="5242898" />
    <vehicle id="vehicle_273_gaussian" type="standard_car" route="W_to_E" depart="455" departLane="random" departSpeed="10" laneChangeMode="5242898" />
    <vehicle id="vehicle_1_gaussian" type="standard_car" route="W_to_E" depart="460" departLane="random" departSpeed="10" laneChangeMode="5242898" />
    <vehicle id="vehicle_24_gaussian" type="standard_car" route="W_to_N" depart="461" departLane="random" departSpeed="10" laneChangeMode="5242898" />
    <vehicle id="vehicle_332_gaussian" type="standard_car" route="W_to_E" depart="464" departLane="random" departSpeed="10" laneChangeMode="5242898" />
    <vehicle id="vehicle_125_gaussian" type="standard_car" route="W_to_E" depart="467" departLane="random" departSpeed="10" laneChangeMode="5242898" />
    <vehicle id="vehicle_363_gaussian" type="standard_car" route="W_to_E" depart="467" departLane="random" departSpeed="10" laneChangeMode="5242898" />
    <vehicle id="vehicle_181_rand" type="standard_car" route="S_to_N" depart="470" departLane="random" departSpeed="10" laneChangeMode="5242898" />
    <vehicle id="vehicle_414_rand" type="standard_car" route="W_to_E" depart="470" departLane="random" departSpeed="10" laneChangeMode="5242898" />
    <vehicle id="vehicle_354_rand" type="standard_car" route="E_to_W" depart="473" departLane="random" departSpeed="10" laneChangeMode="5242898" />
    <vehicle id="vehicle_339_gaussian" type="standard_car" route="W_to_E" depart="474" departLane="random" departSpeed="10" laneChangeMode="5242898" />
    <vehicle id="vehicle_177_gaussian" type="standard_car" route="W_to_E" depart="479" departLane="random" departSpeed="10" laneChangeMode="5242898" />
    <vehicle id="vehicle_199_gaussian" type="standard_car" route="W_to_E" depart="479" departLane="random" departSpeed="10" laneChangeMode="5242898" />
    <vehicle id="vehicle_110_gaussian" type="standard_car" route="W_to_E" depart="481" departLane="random" departSpeed="10" laneChangeMode="5242898" />
    <vehicle id="vehicle_14_gaussian" type="standard_car" route="W_to_N" depart="484" departLane="random" departSpeed="10" laneChangeMode="5242898" />
    <vehicle id="vehicle_213_gaussian" type="standard_car" route="W_to_S" depart="486" departLane="random" departSpeed="10" laneChangeMode="5242898" />
    <vehicle id="vehicle_221_rand" type="standard_car" route="W_to_E" depart="488" departLane="random" departSpeed="10" laneChangeMode="5242898" />
    <vehicle id="vehicle_272_gaussian" type="standard_car" route="W_to_E" depart="490" departLane="random" departSpeed="10" laneChangeMode="5242898" />
    <vehicle id="vehicle_174_gaussian" type="standard_car" route="W_to_E" depart="491" departLane="random" departSpeed="10" laneChangeMode="5242898" />
    <vehicle id="vehicle_311_gaussian" type="standard_car" route="W_to_E" depart="491" departLane="random" departSpeed="10" laneChangeMode="5242898" />
    <vehicle id="vehicle_387_gaussian" type="standard_car" route="W_to_N" depart="493" departLane="random" departSpeed="10" laneChangeMode="5242898" />
    <vehicle id="vehicle_377_gaussian" type="standard_car" route="W_to_S" depart="495" departLane="random" departSpeed="10" laneChangeMode="5242898" />
    <vehicle id="vehicle_398_gaussian" type="standard_car" route="W_to_E" depart="496" departLane="random" departSpeed="10" laneChangeMode="5242898" />
    <vehicle id="vehicle_50_gaussian" type="standard_car" route="W_to_N" depart="499" departLane="random" departSpeed="10" laneChangeMode="5242898" />
    <vehicle id="vehicle_102_gaussian" type="standard_car" route="W_to_E" depart="502" departLane="random" departSpeed="10" laneChangeMode="5242898" />
    <vehicle id="vehicle_18_gaussian" type="standard_car" route="W_to_E" depart="502" departLane="random" departSpeed="10" laneChangeMode="5242898" />
    <vehicle id="vehicle_114_gaussian" type="standard_car" route="W_to_E" depart="506" departLane="random" departSpeed="10" laneChangeMode="5242898" />
    <vehicle id="vehicle_305_gaussian" type="standard_car" route="W_to_E" depart="506" departLane="random" departSpeed="10" laneChangeMode="5242898" />
    <vehicle id="vehicle_126_rand" type="standard_car" route="E_to_W" depart="507" departLane="random" departSpeed="10" laneChangeMode="5242898" />
    <vehicle id="vehicle_526_rand" type="standard_car" route="N_to_S" depart="507" departLane="random" departSpeed="10" laneChangeMode="5242898" />
    <vehicle id="vehicle_94_rand" type="standard_car" route="W_to_E" depart="507" departLane="random" departSpeed="10" laneChangeMode="5242898" />
    <vehicle id="vehicle_386_gaussian" type="standard_car" route="E_to_W" depart="509" departLane="random" departSpeed="10" laneChangeMode="5242898" />
    <vehicle id="vehicle_215_rand" type="standard_car" route="S_to_N" depart="512" departLane="random" departSpeed="10" laneChangeMode="5242898" />
    <vehicle id="vehicle_341_gaussian" type="standard_car" route="W_to_E" depart="513" departLane="random" departSpeed="10" laneChangeMode="5242898" />
    <vehicle id="vehicle_260_gaussian" type="standard_car" route="E_to_W" depart="521" departLane="random" departSpeed="10" laneChangeMode="5242898" />
    <vehicle id="vehicle_301_gaussian" type="standard_car" route="W_to_E" depart="521" departLane="random" departSpeed="10" laneChangeMode="5242898" />
    <vehicle id="vehicle_541_rand" type="standard_car" route="N_to_S" depart="521" departLane="random" departSpeed="10" laneChangeMode="5242898" />
    <vehicle id="vehicle_166_rand" type="standard_car" route="E_to_S" depart="522" departLane="random" departSpeed="10" laneChangeMode="5242898" />
    <vehicle id="vehicle_230_gaussian" type="standard_car" route="W_to_E" depart="528" departLane="random" departSpeed="10" laneChangeMode="5242898" />