                
<routes>
            <vType accel="1.0" decel="4.5" id="standard_car" length="5.0" minGap="2.5" maxSpeed="25" sigma="0.5" laneChangeMode="5242898"/>
            
            <!-- route definition (the car route) -->

            <route id="W_to_N" edges="W_in N_out"/>
            <route id="W_to_E" edges="W_in E_out"/>
            <route id="W_to_S" edges="W_in S_out"/>
            <route id="N_to_W" edges="N_in W_out"/>
            <route id="N_to_E" edges="N_in E_out"/>
            <route id="N_to_S" edges="N_in S_out"/>
            <route id="E_to_W" edges="E_in W_out"/>
            <route id="E_to_N" edges="E_in N_out"/>
            <route id="E_to_S" edges="E_in S_out"/>
            <route id="S_to_W" edges="S_in W_out"/>
            <route id="S_to_N" edges="S_in N_out"/>
            <route id="S_to_E" edges="S_in E_out"/>
    <vehicle id="vehicle_506_rand" type="standard_car" route="E_to_W" depart="8" departLane="random" departSpeed="10" laneChangeMode="5242898" />
    <vehicle id="vehicle_240_rand" type="standard_car" route="S_to_E" depart="24" departLane="random" departSpeed="10" laneChangeMode="5242898" />
    <vehicle id="vehicle_368_rand" type="standard_car" route="E_to_W" depart="24" departLane="random" departSpeed="10" laneChangeMode="5242898" />
    <vehicle id="vehicle_17_rand" type="standard_car" route="W_to_N" depart="43" departLane="random" departSpeed="10" laneChangeMode="5242898" />
    <vehicle id="vehicle_170_rand" type="standard_car" route="W_to_E" depart="48" departLane="random" departSpeed="10" laneChangeMode="5242898" />
    <vehicle id="vehicle_302_rand" type="standard_car" route="E_to_S" depart="58" departLane="random" departSpeed="10" laneChangeMode="5242898" />
    <vehicle id="vehicle_185_rand" type="standard_car" route="N_to_S" depart="63" departLane="random" departSpeed="10" laneChangeMode="5242898" />
    <vehicle id="vehicle_535_rand" type="standard_car" route="N_to_S" depart="70" departLane="random" departSpeed="10" laneChangeMode="5242898" />
    <vehicle id="vehicle_52_rand" type="standard_car" route="S_to_E" depart="71" departLane="random" departSpeed="10" laneChangeMode="5242898" />
    <vehicle id="vehicle_154_rand" type="standard_car" route="N_to_S" depart="75" departLane="random" departSpeed="10" laneChangeMode="5242898" />
    <vehicle id="vehicle_579_rand" type="standard_car" route="S_to_N" depart="80" departLane="random" departSpeed="10" laneChangeMode="5242898" />
    <vehicle id="vehicle_466_rand" type="standard_car" route="S_to_N" depart="84" departLane="random" departSpeed="10" laneChangeMode="5242898" />
    <vehicle id="vehicle_439_rand" type="standard_car" route="N_to_S" depart="96" departLane="random" departSpeed="10" laneChangeMode="5242898" />
    <vehicle id="vehicle_165_rand" type="standard_car" route="W_to_E" depart="103" departLane="random" departSpeed="10" laneChangeMode="5242898" />
    <vehicle id="vehicle_419_rand" type="standard_car" route="N_to_S" depart="112" departLane="random" departSpeed="10" laneChangeMode="5242898" />
    <vehicle id="vehicle_118_rand" type="standard_car" route="E_to_W" depart="116" departLane="random" departSpeed="10" laneChangeMode="5242898" />
    <vehicle id="vehicle_356_rand" type="standard_car" route="E_to_W" depart="121" departLane="random" departSpeed="10" laneChangeMode="5242898" />
    <vehicle id="vehicle_406_rand" type="standard_car" route="N_to_E" depart="125" departLane="random" departSpeed="10" laneChangeMode="5242898" />
    <vehicle id="vehicle_19_rand" type="standard_car" route="N_to_S" depart="130" departLane="random" departSpeed="10" laneChangeMode="5242898" />
    <vehicle id="vehicle_8_rand" type="standard_car" route="W_to_E" depart="132" departLane="random" departSpeed="10" laneChangeMode="5242898" />
    <vehicle id="vehicle_417_rand" type="standard_car" route="N_to_S" depart="134" departLane="random" departSpeed="10" laneChangeMode="5242898" />
    <vehicle id="vehicle_35_rand" type="standard_car" route="N_to_S" depart="135" departLane="random" departSpeed="10" laneChangeMode="5242898" />
    <vehicle id="vehicle_257_rand" type="standard_car" route="S_to_N" depart="145" departLane="random" departSpeed="10" laneChangeMode="5242898" />
    <vehicle id="vehicle_554_rand" type="standard_car" route="S_to_N" depart="150" departLane="random" departSpeed="10" laneChangeMode="5242898" />
    <vehicle id="vehicle_405_rand" type="standard_car" route="W_to_S" depart="153" departLane="random" departSpeed="10" laneChangeMode="5242898" />
    <vehicle id="vehicle_568_rand" type="standard_car" route="W_to_E" depart="153" departLane="random" departSpeed="10" laneChangeMode="5242898" />
    <vehicle id="vehicle_46_rand" type="standard_car" route="E_to_W" depart="160" departLane="random" departSpeed="10" laneChangeMode="5242898" />
    <vehicle id="vehicle_480_rand" type="standard_car" route="E_to_W" depart="160" departLane="random" departSpeed="10" laneChangeMode="5242898" />
    <vehicle id="vehicle_233_rand" type="standard_car" route="S_to_N" depart="161" departLane="random" departSpeed="10" laneChangeMode="5242898" />
    <vehicle id="vehicle_85_rand" type="standard_car" route="N_to_S" depart="166" departLane="random" departSpeed="10" laneChangeMode="5242898" />
    <vehicle id="vehicle_15_rand" type="standard_car" route="S_to_N" depart="183" departLane="random" departSpeed="10" laneChangeMode="5242898" />
    <vehicle id="vehicle_232_rand" type="standard_car" route="W_to_E" depart="214" departLane="random" departSpeed="10" laneChangeMode="5242898" />
    <vehicle id="vehicle_49_rand" type="standard_car" route="E_to_N" depart="216" departLane="random" departSpeed="10" laneChangeMode="5242898" />
    <vehicle id="vehicle_524_rand" type="standard_car" route="S_to_N" depart="221" departLane="random" departSpeed="10" laneChangeMode="5242898" />
    <vehicle id="vehicle_334_rand" type="standard_car" route="W_to_E" depart="225" departLane="random" departSpeed="10" laneChangeMode="5242898" />
    <vehicle id="vehicle_194_rand" type="standard_car" route="N_to_S" depart="232" departLane="random" departSpeed="10" laneChangeMode="5242898" />
    <vehicle id="vehicle_457_rand" type="standard_car" route="W_to_E" depart="233" departLane="random" departSpeed="10" laneChangeMode="5242898" />
    <vehicle id="vehicle_525_rand" type="standard_car" route="W_to_S" depart="234" departLane="random" departSpeed="10" laneChangeMode="5242898" />
    <vehicle id="vehicle_409_rand" type="standard_car" route="S_to_N" depart="236" departLane="random" departSpeed="10" laneChangeMode="5242898" />
    <vehicle id="vehicle_416_rand" type="standard_car" route="E_to_W" depart="251" departLane="random" departSpeed="10" laneChangeMode="5242898" />
    <vehicle id="vehicle_547_rand" type="standard_car" route="W_to_S" depart="269" departLane="random" departSpeed="10" laneChangeMode="5242898" />
    <vehicle id="vehicle_385_rand" type="standard_car" route="N_to_S" depart="280" departLane="random" departSpeed="10" laneChangeMode="5242898" />
    <vehicle id="vehicle_187_rand" type="standard_car" route="W_to_E" depart="287" departLane="random" departSpeed="10" laneChangeMode="5242898" />
    <vehicle id="vehicle_87_rand" type="standard_car" route="S_to_N" depart="297" departLane="random" departSpeed="10" laneChangeMode="5242898" />
    <vehicle id="vehicle_265_rand" type="standard_car" route="S_to_N" depart="305" departLane="random" departSpeed="10" laneChangeMode="5242898" />
    <vehicle id="vehicle_363_rand" type="standard_car" route="E_to_W" depart="314" departLane="random" departSpeed="10" laneChangeMode="5242898" />
    <vehicle id="vehicle_116_rand" type="standard_car" route="W_to_E" depart="326" departLane="random" departSpeed="10" laneChangeMode="5242898" />
    <vehicle id="vehicle_346_rand" type="standard_car" route="S_to_N" depart="331" departLane="random" departSpeed="10" laneChangeMode="5242898" />
    <vehicle id="vehicle_137_rand" type="standard_car" route="N_to_S" depart="332" departLane="random" departSpeed="10" laneChangeMode="5242898" />
    <vehicle id="vehicle_207_rand" type="standard_car" route="E_to_W" depart="335" departLane="random" departSpeed="10" laneChangeMode="5242898" />
    <vehicle id="vehicle_304_gaussian" type="standard_car" route="W_to_E" depart="340" departLane="random" departSpeed="10" laneChangeMode="5242898" />
    <vehicle id="vehicle_501_rand" type="standard_car" route="N_to_S" depart="342" departLane="random" departSpeed="10" laneChangeMode="5242898" />
    <vehicle id="vehicle_424_rand" type="standard_car" route="S_to_N" depart="356" departLane="random" departSpeed="10" laneChangeMode="5242898" />
    <vehicle id="vehicle_572_rand" type="standard_car" route="N_to_S" depart="358" departLane="random" departSpeed="10" laneChangeMode="5242898" />
    <vehicle id="vehicle_540_rand" type="standard_car" route="W_to_E" depart="359" departLane="random" departSpeed="10" laneChangeMode="5242898" />
    <vehicle id="vehicle_20_gaussian" type="standard_car" route="W_to_S" depart="362" departLane="random" departSpeed="10" laneChangeMode="5242898" />
    <vehicle id="vehicle_167_rand" type="standard_car" route="W_to_E" depart="365" departLane="random" departSpeed="10" laneChangeMode="5242898" />
    <vehicle id="vehicle_575_rand" type="standard_car" route="S_to_N" depart="365" departLane="random" departSpeed="10" laneChangeMode="5242898" />
    <vehicle id="vehicle_332_rand" type="standard_car" route="S_to_N" depart="372" departLane="random" departSpeed="10" laneChangeMode="5242898" />
    <vehicle id="vehicle_81_rand" type="standard_car" route="E_to_S" depart="375" departLane="random" departSpeed="10" laneChangeMode="5242898" />
    <vehicle id="vehicle_361_rand" type="standard_car" route="N_to_S" depart="391" departLane="random" departSpeed="10" laneChangeMode="5242898" />
    <vehicle id="vehicle_276_gaussian" type="standard_car" route="W_to_E" depart="400" departLane="random" departSpeed="10" laneChangeMode="5242898" />
    <vehicle id="vehicle_200_rand" type="standard_car" route="E_to_W" depart="404" departLane="random" departSpeed="10" laneChangeMode="5242898" />
    <vehicle id="vehicle_226_gaussian" type="standard_car" route="W_to_E" depart="411" departLane="random" departSpeed="10" laneChangeMode="5242898" />
    <vehicle id="vehicle_222_rand" type="standard_car" route="N_to_S" depart="415" departLane="random" departSpeed="10" laneChangeMode="5242898" />
    <vehicle id="vehicle_253_gaussian" type="standard_car" route="W_to_E" depart="416" departLane="random" departSpeed="10" laneChangeMode="5242898" />
    <vehicle id="vehicle_349_gaussian" type="standard_car" route="W_to_E" depart="417" departLane="random" departSpeed="10" laneChangeMode="5242898" />
    <vehicle id="vehicle_410_rand" type="standard_car" route="W_to_E" depart="417" departLane="random" departSpeed="10" laneChangeMode="5242898" />
    <vehicle id="vehicle_196_rand" type="standard_car" route="W_to_E" depart="423" departLane="random" departSpeed="10" laneChangeMode="5242898" />
    <vehicle id="vehicle_150_gaussian" type="standard_car" route="W_to_E" depart="424" departLane="random" departSpeed="10" laneChangeMode="5242898" />
    <vehicle id="vehicle_11_gaussian" type="standard_car" route="W_to_N" depart="428" departLane="random" departSpeed="10" laneChangeMode="5242898" />
    <vehicle id="vehicle_437_rand" type="standard_car" route="W_to_E" depart="428" departLane="random" departSpeed="10" laneChangeMode="5242898" />
    <vehicle id="vehicle_348_rand" type="standard_car" route="E_to_S" depart="433" departLane="random" departSpeed="10" laneChangeMode="5242898" />
    <vehicle id="vehicle_198_gaussian" type="standard_car" route="W_to_S" depart="442" departLane="random" departSpeed="10" laneChangeMode="5242898" />
    <vehicle id="vehicle_559_rand" type="standard_car" route="N_to_W" depart="444" departLane="random" departSpeed="10" laneChangeMode="5242898" />
    <vehicle id="vehicle_511_rand" type="standard_car" route="N_to_W" depart="447" departLane="random" departSpeed="10" laneChangeMode="5242898" />
    <vehicle id="vehicle_388_rand" type="standard_car" route="N_to_S" depart="451" departLane="random" departSpeed="10" laneChangeMode="5242898" />
    <vehicle id="vehicle_378_gaussian" type="standard_car" route="W_to_N" depart="453" departLane="random" departSpeed="10" laneChangeMode="5242898" />
    <vehicle id="vehicle_287_gaussian" type="standard_car" route="W_to_N" depart="457" departLane="random" departSpeed="10" laneChangeMode="5242898" />
    <vehicle id="vehicle_584_rand" type="standard_car" route="E_to_W" depart="462" departLane="random" departSpeed="10" laneChangeMode="5242898" />
    <vehicle id="vehicle_223_gaussian" type="standard_car" route="W_to_E" depart="473" departLane="random" departSpeed="10" laneChangeMode="5242898" />
    <vehicle id="vehicle_270_gaussian" type="standard_car" route="S_to_E" depart="474" departLane="random" departSpeed="10" laneChangeMode="5242898" />
    <vehicle id="vehicle_209_gaussian" type="standard_car" route="W_to_E" depart="475" departLane="random" departSpeed="10" laneChangeMode="5242898" />
    <vehicle id="vehicle_144_rand" type="standard_car" route="N_to_S" depart="480" departLane="random" departSpeed="10" laneChangeMode="5242898" />
    <vehicle id="vehicle_176_gaussian" type="standard_car" route="W_to_E" depart="484" departLane="random" departSpeed="10" laneChangeMode="5242898" />
    <vehicle id="vehicle_277_gaussian" type="standard_car" route="W_to_E" depart="485" departLane="random" departSpeed="10" laneChangeMode="5242898" />
    <vehicle id="vehicle_451_rand" type="standard_car" route="N_to_S" depart="492" departLane="random" departSpeed="10" laneChangeMode="5242898" />
    <vehicle id="vehicle_113_gaussian" type="standard_car" route="W_to_E" depart="493" departLane="random" departSpeed="10" laneChangeMode="5242898" />
    <vehicle id="vehicle_282_rand" type="standard_car" route="N_to_S" depart="493" departLane="random" departSpeed="10" laneChangeMode="5242898" />
    <vehicle id="vehicle_387_gaussian" type="standard_car" route="W_to_E" depart="494" departLane="random" departSpeed="10" laneChangeMode="5242898" />
    <vehicle id="vehicle_385_gaussian" type="standard_car" route="W_to_E" depart="498" departLane="random" departSpeed="10" laneChangeMode="5242898" />
    <vehicle id="vehicle_129_rand" type="standard_car" route="W_to_E" depart="500" departLane="random" departSpeed="10" laneChangeMode="5242898" />
    <vehicle id="vehicle_42_gaussian" type="standard_car" route="W_to_E" depart="502" departLane="random" departSpeed="10" laneChangeMode="5242898" />
    <vehicle id="vehicle_47_rand" type="standard_car" route="N_to_S" depart="502" departLane="random" departSpeed="10" laneChangeMode="5242898" />
    <vehicle id="vehicle_259_gaussian" type="standard_car" route="S_to_E" depart="503" departLane="random" departSpeed="10" laneChangeMode="5242898" />
    <vehicle id="vehicle_286_rand" type="standard_car" route="W_to_S" depart="506" departLane="random" departSpeed="10" laneChangeMode="5242898" />
    <vehicle id="vehicle_88_gaussian" type="standard_car" route="W_to_E" depart="506" departLane="random" departSpeed="10" laneChangeMode="5242898" />
    <vehicle id="vehicle_213_rand" type="standard_car" route="W_to_E" depart="507" departLane="random" departSpeed="10" laneChangeMode="5242898" />
    <vehicle id="vehicle_284_gaussian" type="standard_car" route="W_to_E" depart="509" departLane="random" departSpeed="10" laneChangeMode="5242898" />
    <vehicle id="vehicle_39_gaussian" type="standard_car" route="W_to_N" depart="509" departLane="random" departSpeed="10" laneChangeMode="5242898" />
    <vehicle id="vehicle_239_gaussian" type="standard_car" route="S_to_N" depart="512" departLane="random" departSpeed="10" laneChangeMode="5242898" />
    <vehicle id="vehicle_86_rand" type="standard_car" route="W_to_E" depart="512" departLane="random" departSpeed="10" laneChangeMode="5242898" />
    <vehicle id="vehicle_21_gaussian" type="standard_car" route="W_to_S" depart="515" departLane="random" departSpeed="10" laneChangeMode="5242898" />
    <vehicle id="vehicle_40_gaussian" type="standard_car" route="W_to_S" depart="516" departLane="random" departSpeed="10" laneChangeMode="5242898" />
    <vehicle id="vehicle_329_gaussian" type="standard_car" route="S_to_W" depart="518" departLane="random" departSpeed="10" laneChangeMode="5242898" />
    <vehicle id="vehicle_549_rand" type="standard_car" route="W_to_E" depart="518" departLane="random" departSpeed="10" laneChangeMode="5242898" />
    <vehicle id="vehicle_171_gaussian" type="standard_car" route="W_to_E" depart="522" departLane="random" departSpeed="10" laneChangeMode="5242898" />
    <vehicle id="vehicle_300_rand" type="standard_car" route="S_to_N" depart="525" departLane="random" departSpeed="10" laneChangeMode="5242898" />
    <vehicle id="vehicle_60_gaussian" type="standard_car" route="W_to_E" depart="525" departLane="random" departSpeed="10" laneChangeMode="5242898" />
    <vehicle id="vehicle_133_gaussian" type="standard_car" route="W_to_S" depart="526" departLane="random" departSpeed="10" laneChangeMode="5242898" />
    <vehicle id="vehicle_76_gaussian" type="standard_car" route="S_to_N" depart="534" departLane="random" departSpeed="10" laneChangeMode="5242898" />
    <vehicle id="vehicle_136_gaussian" type="standard_car" route="W_to_N" depart="535" departLane="random" departSpeed="10" laneChangeMode="5242898" />
    <vehicle id="vehicle_173_gaussian" type="standard_car" route="S_to_N" depart="538" departLane="random" departSpeed="10" laneChangeMode="5242898" />
    <vehicle id="vehicle_200_gaussian" type="standard_car" route="W_to_N" depart="539" departLane="random" departSpeed="10" laneChangeMode="5242898" />
    <vehicle id="vehicle_315_gaussian" type="standard_car" route="W_to_S" depart="541" departLane="random" departSpeed="10" laneChangeMode="5242898" />
    <vehicle id="vehicle_151_gaussian" type="standard_car" route="W_to_N" depart="548" departLane="random" departSpeed="10" laneChangeMode="5242898" />
    <vehicle id="vehicle_293_gaussian" type="standard_car" route="S_to_W" depart="549" departLane="random" departSpeed="10" laneChangeMode="5242898" />
    <vehicle id="vehicle_260_gaussian" type="standard_car" route="S_to_N" depart="553" departLane="random" departSpeed="10" laneChangeMode="5242898" />
    <vehicle id="vehicle_299_gaussian" type="standard_car" route="W_to_E" depart="555" departLane="random" departSpeed="10" laneChangeMode="5242898" />
    <vehicle id="vehicle_216_gaussian" type="standard_car" route="W_to_E" depart="556" departLane="random" departSpeed="10" laneChangeMode="5242898" />
    <vehicle id="vehicle_232_gaussian" type="standard_car" route="S_to_N" depart="557" departLane="random" departSpeed="10" laneChangeMode="5242898" />
    <vehicle id="vehicle_334_gaussian" type="standard_car" route="S_to_N" depart="557" departLane="random" departSpeed="10" laneChangeMode="5242898" />
    <vehicle id="vehicle_174_gaussian" type="standard_car" route="W_to_E" depart="558" departLane="random" departSpeed="10" laneChangeMode="5242898" />
    <vehicle id="vehicle_309_rand" type="standard_car" route="W_to_E" depart="558" departLane="random" departSpeed="10" laneChangeMode="5242898" />
    <vehicle id="vehicle_251_gaussian" type="standard_car" route="W_to_E" depart="562" departLane="random" departSpeed="10" laneChangeMode="5242898" />
    <vehicle id="vehicle_489_rand" type="standard_car" route="N_to_S" depart="562" departLane="random" departSpeed="10" laneChangeMode="5242898" />
    <vehicle id="vehicle_57_gaussian" type="standard_car" route="W_to_S" depart="562" departLane="random" departSpeed="10" laneChangeMode="5242898" />
    <vehicle id="vehicle_355_gaussian" type="standard_car" route="W_to_E" depart="565" departLane="random" departSpeed="10" laneChangeMode="5242898" />
    <vehicle id="vehicle_565_rand" type="standard_car" route="S_to_N" depart="569" departLane="random" departSpeed="10" laneChangeMode="5242898" />
    <vehicle id="vehicle_185_gaussian" type="standard_car" route="S_to_N" depart="572" departLane="random" departSpeed="10" laneChangeMode="5242898" />
    <vehicle id="vehicle_273_gaussian" type="standard_car" route="W_to_E" depart="573" departLane="random" departSpeed="10" laneChangeMode="5242898" />
    <vehicle id="vehicle_292_rand" type="standard_car" route="W_to_E" depart="578" departLane="random" departSpeed="10" laneChangeMode="5242898" />
    <vehicle id="vehicle_444_rand" type="standard_car" route="W_to_E" depart="578" departLane="random" departSpeed="10" laneChangeMode="5242898" />
    <vehicle id="vehicle_67_rand" type="standard_car" route="S_to_N" depart="578" departLane="random" departSpeed="10" laneChangeMode="5242898" />
    <vehicle id="vehicle_53_gaussian" type="standard_car" route="S_to_N" depart="579" departLane="random" departSpeed="10" laneChangeMode="5242898" />
    <vehicle id="vehicle_300_gaussian" type="standard_car" route="W_to_S" depart="580" departLane="random" departSpeed="10" laneChangeMode="5242898" />
    <vehicle id="vehicle_135_rand" type="standard_car" route="N_to_S" depart="581" departLane="random" departSpeed="10" laneChangeMode="5242898" />
    <vehicle id="vehicle_123_gaussian" type="standard_car" route="S_to_N" depart="583" departLane="random" departSpeed="10" laneChangeMode="5242898" />
    <vehicle id="vehicle_420_rand" type="standard_car" route="S_to_N" depart="589" departLane="random" departSpeed="10" laneChangeMode="5242898" />
    <vehicle id="vehicle_264_gaussian" type="standard_car" route="W_to_S" depart="591" departLane="random" departSpeed="10" laneChangeMode="5242898" />
    <vehicle id="vehicle_321_gaussian" type="standard_car" route="S_to_E" depart="592" departLane="random" departSpeed="10" laneChangeMode="5242898" />
    <vehicle id="vehicle_152_gaussian" type="standard_car" route="W_to_E" depart="593" departLane="random" departSpeed="10" laneChangeMode="5242898" />
    <vehicle id="vehicle_8_gaussian" type="standard_car" route="W_to_E" depart="593" departLane="random" departSpeed="10" laneChangeMode="5242898" />
    <vehicle id="vehicle_186_gaussian" type="standard_car" route="W_to_N" depart="594" departLane="random" departSpeed="10" laneChangeMode="5242898" />
    <vehicle id="vehicle_317_rand" type="standard_car" route="E_to_W" depart="596" departLane="random" departSpeed="10" laneChangeMode="5242898" />
    <vehicle id="vehicle_41_gaussian" type="standard_car" route="S_to_N" depart="596" departLane="random" departSpeed="10" laneChangeMode="5242898" />
    <vehicle id="vehicle_24_gaussian" type="standard_car" route="S_to_W" depart="598" departLane="random" departSpeed="10" laneChangeMode="5242898" />
    <vehicle id="vehicle_114_gaussian" type="standard_car" route="W_to_E" depart="599" departLane="random" departSpeed="10" laneChangeMode="5242898" />
    <vehicle id="vehicle_98_gaussian" type="standard_car" route="W_to_E" depart="599" departLane="random" departSpeed="10" laneChangeMode="5242898" />
    <vehicle id="vehicle_139_gaussian" type="standard_car" route="S_to_N" depart="601" departLane="random" departSpeed="10" laneChangeMode="5242898" />
    <vehicle id="vehicle_118_gaussian" type="standard_car" route="W_to_S" depart="603" departLane="random" departSpeed="10" laneChangeMode="5242898" />
    <vehicle id="vehicle_95_gaussian" type="standard_car" route="W_to_N" depart="603" departLane="random" departSpeed="10" laneChangeMode="5242898" />
    <vehicle id="vehicle_15_gaussian" type="standard_car" route="W_to_E" depart="604" departLane="random" departSpeed="10" laneChangeMode="5242898" />
    <vehicle id="vehicle_320_rand" type="standard_car" route="E_to_W" depart="606" departLane="random" departSpeed="10" laneChangeMode="5242898" />
    <vehicle id="vehicle_87_gaussian" type="standard_car" route="W_to_E" depart="608" departLane="random" departSpeed="10" laneChangeMode="5242898" />
    <vehicle id="vehicle_144_gaussian" type="standard_car" route="W_to_E" depart="609" departLane="random" departSpeed="10" laneChangeMode="5242898" />
    <vehicle id="vehicle_166_rand" type="standard_car" route="E_to_W" depart="609" departLane="random" departSpeed="10" laneChangeMode="5242898" />
    <vehicle id="vehicle_380_rand" type="standard_car" route="S_to_N" depart="609" departLane="random" departSpeed="10" laneChangeMode="5242898" />
    <vehicle id="vehicle_312_rand" type="standard_car" route="N_to_S" depart="616" departLane="random" departSpeed="10" laneChangeMode="5242898" />
    <vehicle id="vehicle_332_gaussian" type="standard_car" route="S_to_N" depart="618" departLane="random" departSpeed="10" laneChangeMode="5242898" />
    <vehicle id="vehicle_344_gaussian" type="standard_car" route="S_to_W" depart="618" departLane="random" departSpeed="10" laneChangeMode="5242898" />
    <vehicle id="vehicle_7_gaussian" type="standard_car" route="S_to_W" depart="620" departLane="random" departSpeed="10" laneChangeMode="5242898" />
    <vehicle id="vehicle_211_gaussian" type="standard_car" route="W_to_E" depart="621" departLane="random" departSpeed="10" laneChangeMode="5242898" />
    <vehicle id="vehicle_187_gaussian" type="standard_car" route="W_to_N" depart="622" departLane="random" departSpeed="10" laneChangeMode="5242898" />
    <vehicle id="vehicle_266_gaussian" type="standard_car" route="W_to_N" depart="623" departLane="random" departSpeed="10" laneChangeMode="5242898" />
    <vehicle id="vehicle_327_gaussian" type="standard_car" route="W_to_N" depart="623" departLane="random" departSpeed="10" laneChangeMode="5242898" />
    <vehicle id="vehicle_350_gaussian" type="standard_car" route="S_to_N" depart="624" departLane="random" departSpeed="10" laneChangeMode="5242898" />
    <vehicle id="vehicle_163_gaussian" type="standard_car" route="W_to_E" depart="625" departLane="random" departSpeed="10" laneChangeMode="5242898" />
    <vehicle id="vehicle_141_gaussian" type="standard_car" route="S_to_N" depart="626" departLane="random" departSpeed="10" laneChangeMode="5242898" />
    <vehicle id="vehicle_219_gaussian" type="standard_car" route="S_to_E" depart="629" departLane="random" departSpeed="10" laneChangeMode="5242898" />
    <vehicle id="vehicle_330_gaussian" type="standard_car" route="S_to_N" depart="630" departLane="random" departSpeed="10" laneChangeMode="5242898" />
    <vehicle id="vehicle_364_gaussian" type="standard_car" route="S_to_N" depart="633" departLane="random" departSpeed="10" laneChangeMode="5242898" />
    <vehicle id="vehicle_367_gaussian" type="standard_car" route="S_to_N" depart="633" departLane="random" departSpeed="10" laneChangeMode="5242898" />
    <vehicle id="vehicle_181_gaussian" type="standard_car" route="W_to_S" depart="638" departLane="random" departSpeed="10" laneChangeMode="5242898" />
    <vehicle id="vehicle_290_gaussian" type="standard_car" route="S_to_N" depart="640" departLane="random" departSpeed="10" laneChangeMode="5242898" />
    <vehicle id="vehicle_262_gaussian" type="standard_car" route="W_to_E" depart="641" departLane="random" departSpeed="10" laneChangeMode="5242898" />
    <vehicle id="vehicle_28_gaussian" type="standard_car" route="W_to_E" depart="642" departLane="random" departSpeed="10" laneChangeMode="5242898" />
    <vehicle id="vehicle_162_gaussian" type="standard_car" route="W_to_E" depart="643" departLane="random" departSpeed="10" laneChangeMode="5242898" />
    <vehicle id="vehicle_188_gaussian" type="standard_car" route="S_to_N" depart="644" departLane="random" departSpeed="10" laneChangeMode="5242898" />
    <vehicle id="vehicle_65_gaussian" type="standard_car" route="W_to_E" depart="644" departLane="random" departSpeed="10" laneChangeMode="5242898" />
    <vehicle id="vehicle_128_gaussian" type="standard_car" route="S_to_N" depart="645" departLane="random" departSpeed="10" laneChangeMode="5242898" />
    <vehicle id="vehicle_305_gaussian" type="standard_car" route="W_to_S" depart="647" departLane="random" departSpeed="10" laneChangeMode="5242898" />
    <vehicle id="vehicle_143_gaussian" type="standard_car" route="S_to_E" depart="648" departLane="random" departSpeed="10" laneChangeMode="5242898" />
    <vehicle id="vehicle_225_gaussian" type="standard_car" route="W_to_E" depart="651" departLane="random" departSpeed="10" laneChangeMode="5242898" />
    <vehicle id="vehicle_342_rand" type="standard_car" route="N_to_S" depart="652" departLane="random" departSpeed="10" laneChangeMode="5242898" />
    <vehicle id="vehicle_199_gaussian" type="standard_car" route="W_to_E" depart="653" departLane="random" departSpeed="10" laneChangeMode="5242898" />
    <vehicle id="vehicle_202_gaussian" type="standard_car" route="S_to_N" depart="653" departLane="random" departSpeed="10" laneChangeMode="5242898" />
    <vehicle id="vehicle_255_gaussian" type="standard_car" route="W_to_E" depart="662" departLane="random" departSpeed="10" laneChangeMode="5242898" />
    <vehicle id="vehicle_126_gaussian" type="standard_car" route="S_to_E" depart="663" departLane="random" departSpeed="10" laneChangeMode="5242898" />
    <vehicle id="vehicle_28_rand" type="standard_car" route="W_to_E" depart="663" departLane="random" departSpeed="10" laneChangeMode="5242898" />
    <vehicle id="vehicle_392_gaussian" type="standard_car" route="W_to_E" depart="664" departLane="random" departSpeed="10" laneChangeMode="5242898" />
    <vehicle id="vehicle_358_rand" type="standard_car" route="E_to_W" depart="668" departLane="random" departSpeed="10" laneChangeMode="5242898" />
    <vehicle id="vehicle_135_gaussian" type="standard_car" route="S_to_N" depart="669" departLane="random" departSpeed="10" laneChangeMode="5242898" />